AeroDyn airfoil file Created with QBlade v0.96.2 64bit on 17.06.2020 at 13:50:26 Compatible with AeroDyn v13.0.
Polar "T1_Re1.000_M0.00_N9.0 360 M" on Foil "T1_Re1.000_M0.00_N9.0" :: generated by QBlade
1              Number of airfoil tables in this file
0              Table ID parameter
15.00          Stall angle (deg)
0              No longer used, enter zero
0              No longer used, enter zero
0              No longer used, enter zero
0.00           Angle of attack for zero Cn for linear Cn curve (deg)
1.52330        Cn slope for zero lift for linear Cn curve (1/rad)
0.9929         Cn at stall value for positive angle of attack for linear Cn curve
-0.6810        Cn at stall value for negative angle of attack for linear Cn curve
6.00           Angle of attack for minimum CD (deg)
0.0198         Minimum CD value
   -180.00   -0.3433    0.0060
   -179.00   -0.3054    0.0065
   -178.00   -0.2683    0.0081
   -177.00   -0.2322    0.0108
   -176.00   -0.1970    0.0145
   -175.00   -0.1627    0.0192
   -174.00   -0.1293    0.0250
   -173.00   -0.0969    0.0318
   -172.00   -0.0654    0.0396
   -171.00   -0.0349    0.0484
   -170.00   -0.0053    0.0582
   -169.00    0.0233    0.0690
   -168.00    0.0508    0.0807
   -167.00    0.0773    0.0934
   -166.00    0.1028    0.1070
   -165.00    0.1271    0.1215
   -164.00    0.1504    0.1368
   -163.00    0.1725    0.1531
   -162.00    0.1935    0.1701
   -161.00    0.2133    0.1880
   -160.00    0.2319    0.2067
   -159.00    0.2494    0.2261
   -158.00    0.2657    0.2463
   -157.00    0.2807    0.2672
   -156.00    0.2946    0.2887
   -155.00    0.3073    0.3110
   -154.00    0.3188    0.3338
   -153.00    0.3292    0.3573
   -152.00    0.3384    0.3813
   -151.00    0.3464    0.4059
   -150.00    0.3533    0.4310
   -149.00    0.3591    0.4565
   -148.00    0.3638    0.4825
   -147.00    0.3675    0.5089
   -146.00    0.3702    0.5357
   -145.00    0.3718    0.5629
   -144.00    0.3725    0.5903
   -143.00    0.3723    0.6180
   -142.00    0.3711    0.6460
   -141.00    0.3692    0.6742
   -140.00    0.3664    0.7026
   -139.00    0.3629    0.7310
   -138.00    0.3586    0.7597
   -137.00    0.3536    0.7883
   -136.00    0.3480    0.8170
   -135.00    0.3419    0.8458
   -134.00    0.3351    0.8744
   -133.00    0.3279    0.9031
   -132.00    0.3202    0.9316
   -131.00    0.3121    0.9600
   -130.00    0.3036    0.9882
   -129.00    0.2948    1.0162
   -128.00    0.2858    1.0440
   -127.00    0.2764    1.0715
   -126.00    0.2669    1.0987
   -125.00    0.2572    1.1256
   -124.00    0.2474    1.1521
   -123.00    0.2375    1.1782
   -122.00    0.2245    1.2039
   -121.00    0.2147    1.2291
   -120.00    0.2048    1.2539
   -119.00    0.1949    1.2781
   -118.00    0.1851    1.3018
   -117.00    0.1754    1.3250
   -116.00    0.1659    1.3475
   -115.00    0.1564    1.3694
   -114.00    0.1471    1.3907
   -113.00    0.1380    1.4113
   -112.00    0.1290    1.4312
   -111.00    0.1202    1.4503
   -110.00    0.1116    1.4688
   -109.00    0.1033    1.4865
   -108.00    0.0951    1.5034
   -107.00    0.0871    1.5195
   -106.00    0.0794    1.5347
   -105.00    0.0719    1.5492
   -104.00    0.0645    1.5628
   -103.00    0.0574    1.5755
   -102.00    0.0505    1.5873
   -101.00    0.0437    1.5982
   -100.00    0.0372    1.6083
    -99.00    0.0308    1.6174
    -98.00    0.0245    1.6256
    -97.00    0.0184    1.6328
    -96.00    0.0124    1.6391
    -95.00    0.0065    1.6444
    -94.00    0.0007    1.6488
    -93.00   -0.0050    1.6522
    -92.00   -0.0106    1.6546
    -91.00   -0.0163    1.6561
    -90.00   -0.0218    1.6565
    -89.00   -0.0274    1.6560
    -88.00   -0.0330    1.6546
    -87.00   -0.0386    1.6521
    -86.00   -0.0443    1.6487
    -85.00   -0.0500    1.6443
    -84.00   -0.0557    1.6390
    -83.00   -0.0616    1.6327
    -82.00   -0.0675    1.6254
    -81.00   -0.0735    1.6172
    -80.00   -0.0797    1.6081
    -79.00   -0.0860    1.5980
    -78.00   -0.0924    1.5871
    -77.00   -0.0989    1.5752
    -76.00   -0.1056    1.5625
    -75.00   -0.1124    1.5489
    -74.00   -0.1193    1.5344
    -73.00   -0.1264    1.5191
    -72.00   -0.1336    1.5030
    -71.00   -0.1410    1.4860
    -70.00   -0.1484    1.4683
    -69.00   -0.1560    1.4498
    -68.00   -0.1637    1.4306
    -67.00   -0.1715    1.4106
    -66.00   -0.1793    1.3900
    -65.00   -0.1873    1.3686
    -64.00   -0.1952    1.3467
    -63.00   -0.2032    1.3240
    -62.00   -0.2112    1.3008
    -61.00   -0.2192    1.2770
    -60.00   -0.2272    1.2527
    -59.00   -0.2351    1.2278
    -58.00   -0.2429    1.2024
    -57.00   -0.2506    1.1765
    -56.00   -0.2582    1.1502
    -55.00   -0.2657    1.1235
    -54.00   -0.2730    1.0963
    -53.00   -0.2801    1.0688
    -52.00   -0.2870    1.0410
    -51.00   -0.2937    1.0128
    -50.00   -0.3002    0.9843
    -49.00   -0.3064    0.9555
    -48.00   -0.3124    0.9264
    -47.00   -0.3182    0.8970
    -46.00   -0.3239    0.8673
    -45.00   -0.3294    0.8373
    -44.00   -0.3348    0.8070
    -43.00   -0.3404    0.7762
    -42.00   -0.3463    0.7448
    -41.00   -0.3527    0.7127
    -40.00   -0.3603    0.6796
    -39.00   -0.3696    0.6450
    -38.00   -0.3818    0.6082
    -37.00   -0.3983    0.5682
    -36.00   -0.4216    0.5235
    -35.00   -0.4550    0.4717
    -34.00   -0.5028    0.4101
    -33.00   -0.5686    0.3359
    -32.00   -0.6513    0.2497
    -31.00   -0.7375    0.1603
    -30.00   -0.8011    0.0849
    -29.00   -0.8211    0.0380
    -28.00   -0.8004    0.0181
    -27.00   -0.7575    0.0133
    -26.00   -0.7080    0.0129
    -25.00   -0.6580    0.0128
    -24.00   -0.6080    0.0128
    -23.00   -0.5580    0.0128
    -22.00   -0.5080    0.0127
    -21.00   -0.4580    0.0127
    -20.00   -0.3780    0.2191
    -19.00   -0.3341    0.2057
    -18.00   -0.2838    0.1943
    -17.00   -0.2300    0.1825
    -16.00   -0.1815    0.1689
    -15.00   -0.1638    0.1612
    -14.00   -0.1277    0.1485
    -13.00   -0.0755    0.1376
    -12.00   -0.0221    0.1260
    -11.00    0.0317    0.1141
     -8.00    0.1688    0.0861
     -7.00    0.1977    0.0772
     -4.00    0.3714    0.0532
     -3.00    0.4325    0.0443
     -2.00    0.4938    0.0403
     -1.00    0.5605    0.0382
      0.00    0.5920    0.0347
      2.00    0.6064    0.0283
      3.00    0.6940    0.0260
      4.00    0.7833    0.0248
      6.00    0.9388    0.0198
      7.00    0.9978    0.0209
      8.00    1.0511    0.0229
      9.00    1.1114    0.0254
     10.00    1.1927    0.0278
     11.00    1.3007    0.0305
     12.00    1.4250    0.0337
     13.00    1.5042    0.0389
     14.00    1.5484    0.0455
     15.00    1.5525    0.0554
     16.00    1.3460    0.0911
     17.00    1.2083    0.1200
     18.00    1.0853    0.1677
     19.00    1.0885    0.1837
     20.00    1.1030    0.1959
     21.00    1.1027    0.2017
     22.00    1.1093    0.2292
     23.00    1.1209    0.2563
     24.00    1.1358    0.2832
     25.00    1.1530    0.3100
     26.00    1.1715    0.3370
     27.00    1.1908    0.3642
     28.00    1.2104    0.3918
     29.00    1.2299    0.4197
     30.00    1.2491    0.4480
     31.00    1.2678    0.4768
     32.00    1.2860    0.5060
     33.00    1.3033    0.5355
     34.00    1.3198    0.5655
     35.00    1.3354    0.5958
     36.00    1.3500    0.6265
     37.00    1.3636    0.6575
     38.00    1.3760    0.6889
     39.00    1.3873    0.7204
     40.00    1.3975    0.7523
     41.00    1.4064    0.7843
     42.00    1.4140    0.8165
     43.00    1.4204    0.8488
     44.00    1.4255    0.8812
     45.00    1.4292    0.9137
     46.00    1.4317    0.9462
     47.00    1.4327    0.9786
     48.00    1.4324    1.0110
     49.00    1.4307    1.0434
     50.00    1.4276    1.0755
     51.00    1.4232    1.1075
     52.00    1.4173    1.1393
     53.00    1.4100    1.1708
     54.00    1.4012    1.2021
     55.00    1.3911    1.2330
     56.00    1.3796    1.2635
     57.00    1.3666    1.2937
     58.00    1.3523    1.3233
     59.00    1.3365    1.3525
     60.00    1.3194    1.3812
     61.00    1.3008    1.4093
     62.00    1.2810    1.4369
     63.00    1.2597    1.4638
     64.00    1.2372    1.4900
     65.00    1.2133    1.5156
     66.00    1.1881    1.5404
     67.00    1.1616    1.5645
     68.00    1.1339    1.5878
     69.00    1.1050    1.6103
     70.00    1.0748    1.6319
     71.00    1.0435    1.6527
     72.00    1.0110    1.6725
     73.00    0.9774    1.6915
     74.00    0.9427    1.7095
     75.00    0.9070    1.7265
     76.00    0.8703    1.7425
     77.00    0.8326    1.7575
     78.00    0.7939    1.7715
     79.00    0.7543    1.7844
     80.00    0.7139    1.7963
     81.00    0.6727    1.8071
     82.00    0.6306    1.8168
     83.00    0.5879    1.8253
     84.00    0.5445    1.8328
     85.00    0.5004    1.8391
     86.00    0.4557    1.8443
     87.00    0.4105    1.8483
     88.00    0.3648    1.8512
     89.00    0.3187    1.8530
     90.00    0.2722    1.8535
     91.00    0.2253    1.8530
     92.00    0.1782    1.8512
     93.00    0.1308    1.8484
     94.00    0.0833    1.8443
     95.00    0.0356    1.8392
     96.00   -0.0121    1.8329
     97.00   -0.0598    1.8254
     98.00   -0.1075    1.8169
     99.00   -0.1550    1.8072
    100.00   -0.2024    1.7964
    101.00   -0.2495    1.7846
    102.00   -0.2964    1.7717
    103.00   -0.3429    1.7577
    104.00   -0.3912    1.7427
    105.00   -0.4369    1.7267
    106.00   -0.4821    1.7097
    107.00   -0.5267    1.6917
    108.00   -0.5707    1.6728
    109.00   -0.6140    1.6530
    110.00   -0.6566    1.6322
    111.00   -0.6984    1.6106
    112.00   -0.7393    1.5882
    113.00   -0.7793    1.5649
    114.00   -0.8184    1.5409
    115.00   -0.8565    1.5161
    116.00   -0.8935    1.4905
    117.00   -0.9294    1.4643
    118.00   -0.9641    1.4374
    119.00   -0.9976    1.4099
    120.00   -1.0299    1.3818
    121.00   -1.0609    1.3532
    122.00   -1.0906    1.3240
    123.00   -1.1188    1.2944
    124.00   -1.1457    1.2643
    125.00   -1.1711    1.2338
    126.00   -1.1951    1.2030
    127.00   -1.2175    1.1718
    128.00   -1.2384    1.1404
    129.00   -1.2577    1.1086
    130.00   -1.2755    1.0767
    131.00   -1.2916    1.0446
    132.00   -1.3060    1.0124
    133.00   -1.3189    0.9801
    134.00   -1.3300    0.9478
    135.00   -1.3395    0.9154
    136.00   -1.3473    0.8831
    137.00   -1.3534    0.8508
    138.00   -1.3578    0.8187
    139.00   -1.3605    0.7867
    140.00   -1.3616    0.7549
    141.00   -1.3609    0.7233
    142.00   -1.3586    0.6920
    143.00   -1.3547    0.6610
    144.00   -1.3491    0.6303
    145.00   -1.3419    0.6000
    146.00   -1.3331    0.5702
    147.00   -1.3228    0.5408
    148.00   -1.3110    0.5118
    149.00   -1.2977    0.4834
    150.00   -1.2829    0.4556
    151.00   -1.2668    0.4283
    152.00   -1.2494    0.4017
    153.00   -1.2308    0.3757
    154.00   -1.2110    0.3504
    155.00   -1.1901    0.3258
    156.00   -1.1682    0.3020
    157.00   -1.1454    0.2789
    158.00   -1.1217    0.2566
    159.00   -1.0972    0.2352
    160.00   -1.0720    0.2146
    161.00   -1.0459    0.1948
    162.00   -1.0187    0.1759
    163.00   -0.9903    0.1580
    164.00   -0.9604    0.1410
    165.00   -0.9285    0.1249
    166.00   -0.8945    0.1098
    167.00   -0.8586    0.0956
    168.00   -0.8211    0.0825
    169.00   -0.7824    0.0704
    170.00   -0.7430    0.0593
    171.00   -0.7032    0.0492
    172.00   -0.6633    0.0401
    173.00   -0.6233    0.0322
    174.00   -0.5833    0.0252
    175.00   -0.5433    0.0194
    176.00   -0.5033    0.0145
    177.00   -0.4633    0.0108
    178.00   -0.4233    0.0081
    179.00   -0.3833    0.0065
    180.00   -0.3433    0.0060
    180.00   -0.3433    0.0060
