AeroDyn airfoil file Created with QBlade v0.96.2 64bit on 19.06.2020 at 19:17:00 Compatible with AeroDyn v13.0.
Polar "T1_Re0.200_M0.00_N9.0 360 M" on Foil "T1_Re0.200_M0.00_N9.0" :: generated by QBlade
1              Number of airfoil tables in this file
0              Table ID parameter
12.00          Stall angle (deg)
0              No longer used, enter zero
0              No longer used, enter zero
0              No longer used, enter zero
-2.57          Angle of attack for zero Cn for linear Cn curve (deg)
3.15588        Cn slope for zero lift for linear Cn curve (1/rad)
-0.3997        Cn at stall value for positive angle of attack for linear Cn curve
-0.5737        Cn at stall value for negative angle of attack for linear Cn curve
3.00           Angle of attack for minimum CD (deg)
0.0177         Minimum CD value
   -180.00   -0.0814    0.0060
   -179.00   -0.0196    0.0065
   -178.00    0.0397    0.0081
   -177.00    0.0940    0.0108
   -176.00    0.1402    0.0145
   -175.00    0.1773    0.0192
   -174.00    0.2061    0.0250
   -173.00    0.2292    0.0318
   -172.00    0.2493    0.0396
   -171.00    0.2682    0.0484
   -170.00    0.2872    0.0582
   -169.00    0.3065    0.0690
   -168.00    0.3262    0.0807
   -167.00    0.3463    0.0934
   -166.00    0.3665    0.1070
   -165.00    0.3868    0.1215
   -164.00    0.4068    0.1368
   -163.00    0.4265    0.1531
   -162.00    0.4457    0.1701
   -161.00    0.4644    0.1880
   -160.00    0.4824    0.2067
   -159.00    0.4997    0.2261
   -158.00    0.5162    0.2463
   -157.00    0.5319    0.2672
   -156.00    0.5468    0.2887
   -155.00    0.5607    0.3110
   -154.00    0.5737    0.3338
   -153.00    0.5858    0.3573
   -152.00    0.5970    0.3813
   -151.00    0.6071    0.4059
   -150.00    0.6163    0.4310
   -149.00    0.6245    0.4565
   -148.00    0.6317    0.4825
   -147.00    0.6380    0.5089
   -146.00    0.6432    0.5357
   -145.00    0.6475    0.5629
   -144.00    0.6508    0.5903
   -143.00    0.6532    0.6180
   -142.00    0.6546    0.6460
   -141.00    0.6551    0.6742
   -140.00    0.6546    0.7026
   -139.00    0.6532    0.7310
   -138.00    0.6510    0.7597
   -137.00    0.6478    0.7883
   -136.00    0.6438    0.8170
   -135.00    0.6390    0.8458
   -134.00    0.6333    0.8744
   -133.00    0.6268    0.9031
   -132.00    0.6196    0.9316
   -131.00    0.6116    0.9600
   -130.00    0.6028    0.9882
   -129.00    0.5933    1.0162
   -128.00    0.5832    1.0440
   -127.00    0.5724    1.0715
   -126.00    0.5609    1.0987
   -125.00    0.5488    1.1256
   -124.00    0.5361    1.1521
   -123.00    0.5228    1.1782
   -122.00    0.5090    1.2039
   -121.00    0.4946    1.2291
   -120.00    0.4798    1.2539
   -119.00    0.4644    1.2781
   -118.00    0.4486    1.3018
   -117.00    0.4324    1.3250
   -116.00    0.4158    1.3475
   -115.00    0.3988    1.3694
   -114.00    0.3814    1.3907
   -113.00    0.3637    1.4113
   -112.00    0.3448    1.4312
   -111.00    0.3265    1.4504
   -110.00    0.3080    1.4688
   -109.00    0.2892    1.4865
   -108.00    0.2702    1.5034
   -107.00    0.2510    1.5195
   -106.00    0.2316    1.5348
   -105.00    0.2120    1.5492
   -104.00    0.1924    1.5628
   -103.00    0.1725    1.5755
   -102.00    0.1526    1.5873
   -101.00    0.1326    1.5983
   -100.00    0.1126    1.6083
    -99.00    0.0925    1.6174
    -98.00    0.0724    1.6256
    -97.00    0.0522    1.6328
    -96.00    0.0321    1.6391
    -95.00    0.0120    1.6445
    -94.00   -0.0080    1.6488
    -93.00   -0.0280    1.6522
    -92.00   -0.0479    1.6547
    -91.00   -0.0677    1.6561
    -90.00   -0.0874    1.6566
    -89.00   -0.1070    1.6561
    -88.00   -0.1264    1.6547
    -87.00   -0.1457    1.6522
    -86.00   -0.1648    1.6488
    -85.00   -0.1837    1.6444
    -84.00   -0.2024    1.6391
    -83.00   -0.2209    1.6328
    -82.00   -0.2391    1.6256
    -81.00   -0.2571    1.6174
    -80.00   -0.2749    1.6083
    -79.00   -0.2924    1.5982
    -78.00   -0.3096    1.5873
    -77.00   -0.3264    1.5754
    -76.00   -0.3430    1.5627
    -75.00   -0.3593    1.5491
    -74.00   -0.3752    1.5347
    -73.00   -0.3907    1.5194
    -72.00   -0.4059    1.5033
    -71.00   -0.4207    1.4863
    -70.00   -0.4351    1.4687
    -69.00   -0.4490    1.4502
    -68.00   -0.4626    1.4310
    -67.00   -0.4757    1.4111
    -66.00   -0.4884    1.3905
    -65.00   -0.5006    1.3692
    -64.00   -0.5124    1.3473
    -63.00   -0.5236    1.3247
    -62.00   -0.5344    1.3016
    -61.00   -0.5446    1.2779
    -60.00   -0.5544    1.2536
    -59.00   -0.5636    1.2288
    -58.00   -0.5722    1.2036
    -57.00   -0.5803    1.1778
    -56.00   -0.5878    1.1517
    -55.00   -0.5947    1.1252
    -54.00   -0.6011    1.0982
    -53.00   -0.6068    1.0710
    -52.00   -0.6120    1.0435
    -51.00   -0.6165    1.0156
    -50.00   -0.6203    0.9876
    -49.00   -0.6236    0.9593
    -48.00   -0.6262    0.9309
    -47.00   -0.6281    0.9023
    -46.00   -0.6294    0.8736
    -45.00   -0.6300    0.8449
    -44.00   -0.6300    0.8161
    -43.00   -0.6293    0.7873
    -42.00   -0.6279    0.7585
    -41.00   -0.6258    0.7298
    -40.00   -0.6231    0.7012
    -39.00   -0.6197    0.6727
    -38.00   -0.6157    0.6444
    -37.00   -0.6110    0.6162
    -36.00   -0.6057    0.5883
    -35.00   -0.5997    0.5606
    -34.00   -0.5933    0.5331
    -33.00   -0.5862    0.5060
    -32.00   -0.5788    0.4792
    -31.00   -0.5709    0.4527
    -30.00   -0.5627    0.4266
    -29.00   -0.5544    0.4007
    -28.00   -0.5462    0.3753
    -27.00   -0.5383    0.3501
    -26.00   -0.5311    0.3252
    -25.00   -0.5251    0.3005
    -24.00   -0.5213    0.2759
    -23.00   -0.5209    0.2511
    -22.00   -0.5255    0.2259
    -21.00   -0.5378    0.1999
    -20.00   -0.3464    0.2170
    -18.00   -0.4402    0.2202
    -17.00   -0.4278    0.2126
    -16.00   -0.4182    0.2047
    -15.00   -0.4074    0.1972
    -14.00   -0.4005    0.1901
    -13.00   -0.3716    0.1798
    -12.00   -0.3189    0.1679
    -11.00   -0.2596    0.1566
    -10.00   -0.2431    0.1588
     -9.00   -0.1998    0.1387
     -8.00   -0.1547    0.1254
     -7.00   -0.1219    0.1164
     -6.00   -0.0669    0.1066
     -5.00   -0.0568    0.1004
     -4.00   -0.0594    0.0957
     -3.00   -0.0258    0.0912
     -2.00    0.0342    0.0839
     -1.00    0.1628    0.0727
      2.00    0.6596    0.0231
      3.00    0.7407    0.0177
      4.00    0.7131    0.0228
      5.00    0.7749    0.0302
      6.00    0.8279    0.0311
      7.00    0.8800    0.0329
     11.00    1.5127    0.0561
     12.00    1.5295    0.0763
     13.00    1.4611    0.0716
     14.00    1.3908    0.0813
     15.00    1.2998    0.0970
     16.00    1.1616    0.1245
     17.00    1.1035    0.1523
     18.00    1.0806    0.1797
     19.00    1.0633    0.1985
     20.00    1.0748    0.2114
     21.00    1.1298    0.1530
     22.00    1.1335    0.1749
     23.00    1.1368    0.1980
     24.00    1.1402    0.2223
     25.00    1.1438    0.2477
     26.00    1.1477    0.2741
     27.00    1.1520    0.3013
     28.00    1.1567    0.3294
     29.00    1.1618    0.3583
     30.00    1.1673    0.3878
     31.00    1.1730    0.4179
     32.00    1.1790    0.4486
     33.00    1.1850    0.4798
     34.00    1.1912    0.5114
     35.00    1.1973    0.5435
     36.00    1.2032    0.5759
     37.00    1.2090    0.6086
     38.00    1.2144    0.6417
     39.00    1.2194    0.6749
     40.00    1.2240    0.7084
     41.00    1.2281    0.7420
     42.00    1.2316    0.7758
     43.00    1.2344    0.8096
     44.00    1.2365    0.8435
     45.00    1.2378    0.8774
     46.00    1.2382    0.9112
     47.00    1.2378    0.9450
     48.00    1.2365    0.9787
     49.00    1.2342    1.0123
     50.00    1.2310    1.0456
     51.00    1.2267    1.0788
     52.00    1.2213    1.1116
     53.00    1.2149    1.1442
     54.00    1.2073    1.1765
     55.00    1.1987    1.2084
     56.00    1.1888    1.2398
     57.00    1.1779    1.2709
     58.00    1.1657    1.3014
     59.00    1.1524    1.3315
     60.00    1.1379    1.3610
     61.00    1.1223    1.3899
     62.00    1.1054    1.4181
     63.00    1.0873    1.4458
     64.00    1.0681    1.4727
     65.00    1.0477    1.4989
     66.00    1.0262    1.5244
     67.00    1.0034    1.5491
     68.00    0.9796    1.5730
     69.00    0.9546    1.5960
     70.00    0.9285    1.6182
     71.00    0.9014    1.6395
     72.00    0.8732    1.6599
     73.00    0.8439    1.6793
     74.00    0.8137    1.6977
     75.00    0.7825    1.7152
     76.00    0.7503    1.7317
     77.00    0.7172    1.7471
     78.00    0.6833    1.7615
     79.00    0.6485    1.7748
     80.00    0.6129    1.7871
     81.00    0.5765    1.7982
     82.00    0.5394    1.8082
     83.00    0.5017    1.8171
     84.00    0.4633    1.8249
     85.00    0.4243    1.8315
     86.00    0.3848    1.8370
     87.00    0.3448    1.8414
     88.00    0.3044    1.8445
     89.00    0.2636    1.8466
     90.00    0.2225    1.8474
     91.00    0.1811    1.8471
     92.00    0.1394    1.8456
     93.00    0.0976    1.8429
     94.00    0.0557    1.8391
     95.00    0.0137    1.8342
     96.00   -0.0283    1.8281
     97.00   -0.0702    1.8209
     98.00   -0.1120    1.8125
     99.00   -0.1536    1.8030
    100.00   -0.1950    1.7924
    101.00   -0.2362    1.7808
    102.00   -0.2769    1.7680
    103.00   -0.3173    1.7542
    104.00   -0.3572    1.7394
    105.00   -0.3966    1.7235
    106.00   -0.4354    1.7067
    107.00   -0.4736    1.6888
    108.00   -0.5111    1.6700
    109.00   -0.5478    1.6503
    110.00   -0.5997    1.6297
    111.00   -0.6345    1.6082
    112.00   -0.6684    1.5859
    113.00   -0.7014    1.5627
    114.00   -0.7335    1.5388
    115.00   -0.7644    1.5141
    116.00   -0.7943    1.4886
    117.00   -0.8231    1.4625
    118.00   -0.8508    1.4357
    119.00   -0.8772    1.4083
    120.00   -0.9024    1.3803
    121.00   -0.9263    1.3517
    122.00   -0.9489    1.3227
    123.00   -0.9702    1.2931
    124.00   -0.9901    1.2631
    125.00   -1.0086    1.2327
    126.00   -1.0257    1.2019
    127.00   -1.0413    1.1708
    128.00   -1.0555    1.1394
    129.00   -1.0682    1.1077
    130.00   -1.0794    1.0758
    131.00   -1.0891    1.0438
    132.00   -1.0973    1.0116
    133.00   -1.1040    0.9794
    134.00   -1.1091    0.9471
    135.00   -1.1127    0.9148
    136.00   -1.1147    0.8825
    137.00   -1.1153    0.8503
    138.00   -1.1143    0.8181
    139.00   -1.1118    0.7862
    140.00   -1.1079    0.7544
    141.00   -1.1024    0.7229
    142.00   -1.0955    0.6916
    143.00   -1.0872    0.6606
    144.00   -1.0774    0.6300
    145.00   -1.0662    0.5997
    146.00   -1.0537    0.5699
    147.00   -1.0399    0.5405
    148.00   -1.0248    0.5116
    149.00   -1.0084    0.4832
    150.00   -0.9909    0.4554
    151.00   -0.9722    0.4282
    152.00   -0.9524    0.4015
    153.00   -0.9315    0.3756
    154.00   -0.9097    0.3503
    155.00   -0.8871    0.3257
    156.00   -0.8636    0.3019
    157.00   -0.8393    0.2788
    158.00   -0.8145    0.2565
    159.00   -0.7892    0.2351
    160.00   -0.7636    0.2145
    161.00   -0.7378    0.1947
    162.00   -0.7121    0.1759
    163.00   -0.6867    0.1579
    164.00   -0.6620    0.1409
    165.00   -0.6383    0.1248
    166.00   -0.6160    0.1097
    167.00   -0.5955    0.0956
    168.00   -0.5772    0.0825
    169.00   -0.5608    0.0704
    170.00   -0.5453    0.0592
    171.00   -0.5287    0.0492
    172.00   -0.5073    0.0401
    173.00   -0.4773    0.0322
    174.00   -0.4368    0.0252
    175.00   -0.3864    0.0194
    176.00   -0.3291    0.0145
    177.00   -0.2683    0.0108
    178.00   -0.2061    0.0081
    179.00   -0.1438    0.0065
    180.00   -0.0814    0.0060
    180.00   -0.0814    0.0060
