AeroDyn airfoil file Created with QBlade v0.96.2 64bit on 19.06.2020 at 19:17:00 Compatible with AeroDyn v13.0.
Polar "T1_Re0.020_M0.00_N9.0 360 V" on Foil "T1_Re0.020_M0.00_N9.0" :: generated by QBlade
1              Number of airfoil tables in this file
0              Table ID parameter
12.00          Stall angle (deg)
0              No longer used, enter zero
0              No longer used, enter zero
0              No longer used, enter zero
5.50           Angle of attack for zero Cn for linear Cn curve (deg)
6.26683        Cn slope for zero lift for linear Cn curve (1/rad)
-0.4903        Cn at stall value for positive angle of attack for linear Cn curve
-0.5446        Cn at stall value for negative angle of attack for linear Cn curve
5.00           Angle of attack for minimum CD (deg)
0.0546         Minimum CD value
   -180.00    0.0000    0.0000
   -179.00    0.0314    0.0005
   -178.00    0.0628    0.0022
   -177.00    0.0940    0.0049
   -176.00    0.1252    0.0088
   -175.00    0.1562    0.0137
   -174.00    0.1871    0.0197
   -173.00    0.2177    0.0267
   -172.00    0.2480    0.0349
   -171.00    0.2780    0.0440
   -170.00    0.3077    0.0543
   -169.00    0.3370    0.0655
   -168.00    0.3660    0.0778
   -167.00    0.3944    0.0911
   -166.00    0.4224    0.1053
   -165.00    0.4499    0.1206
   -164.00    0.4768    0.1368
   -163.00    0.5031    0.1539
   -162.00    0.5288    0.1719
   -161.00    0.5539    0.1908
   -160.00    0.5783    0.2106
   -159.00    0.6020    0.2312
   -158.00    0.6250    0.2526
   -157.00    0.6472    0.2748
   -156.00    0.6686    0.2978
   -155.00    0.6892    0.3215
   -154.00    0.7090    0.3459
   -153.00    0.7279    0.3710
   -152.00    0.7459    0.3967
   -151.00    0.7630    0.4231
   -150.00    0.7792    0.4500
   -149.00    0.7944    0.4775
   -148.00    0.8087    0.5055
   -147.00    0.8219    0.5339
   -146.00    0.8342    0.5629
   -145.00    0.8455    0.5922
   -144.00    0.8557    0.6219
   -143.00    0.8649    0.6519
   -142.00    0.8730    0.6823
   -141.00    0.8801    0.7129
   -140.00    0.8861    0.7437
   -139.00    0.8910    0.7747
   -138.00    0.8948    0.8059
   -137.00    0.8975    0.8372
   -136.00    0.8992    0.8686
   -135.00    0.8997    0.9000
   -134.00    0.8992    0.9314
   -133.00    0.8975    0.9628
   -132.00    0.8948    0.9941
   -131.00    0.8910    1.0253
   -130.00    0.8861    1.0563
   -129.00    0.8801    1.0871
   -128.00    0.8730    1.1177
   -127.00    0.8649    1.1481
   -126.00    0.8557    1.1781
   -125.00    0.8455    1.2078
   -124.00    0.8342    1.2371
   -123.00    0.8219    1.2661
   -122.00    0.8087    1.2945
   -121.00    0.7944    1.3225
   -120.00    0.7792    1.3500
   -119.00    0.7630    1.3769
   -118.00    0.7459    1.4033
   -117.00    0.7279    1.4290
   -116.00    0.7090    1.4541
   -115.00    0.6892    1.4785
   -114.00    0.6686    1.5022
   -113.00    0.6472    1.5252
   -112.00    0.6250    1.5474
   -111.00    0.6020    1.5688
   -110.00    0.5783    1.5894
   -109.00    0.5539    1.6092
   -108.00    0.5288    1.6281
   -107.00    0.5031    1.6461
   -106.00    0.4768    1.6632
   -105.00    0.4499    1.6794
   -104.00    0.4224    1.6947
   -103.00    0.3944    1.7089
   -102.00    0.3660    1.7222
   -101.00    0.3370    1.7345
   -100.00    0.3077    1.7457
    -99.00    0.2780    1.7560
    -98.00    0.2480    1.7651
    -97.00    0.2177    1.7733
    -96.00    0.1871    1.7803
    -95.00    0.1562    1.7863
    -94.00    0.1252    1.7912
    -93.00    0.0940    1.7951
    -92.00    0.0628    1.7978
    -91.00    0.0314    1.7995
    -90.00   -0.0000    1.8000
    -89.00   -0.0314    1.7998
    -88.00   -0.0627    1.7986
    -87.00   -0.0939    1.7962
    -86.00   -0.1250    1.7928
    -85.00   -0.1559    1.7883
    -84.00   -0.1866    1.7826
    -83.00   -0.2170    1.7760
    -82.00   -0.2471    1.7682
    -81.00   -0.2769    1.7594
    -80.00   -0.3064    1.7496
    -79.00   -0.3354    1.7387
    -78.00   -0.3640    1.7268
    -77.00   -0.3921    1.7139
    -76.00   -0.4197    1.7000
    -75.00   -0.4467    1.6852
    -74.00   -0.4732    1.6693
    -73.00   -0.4990    1.6526
    -72.00   -0.5242    1.6350
    -71.00   -0.5488    1.6164
    -70.00   -0.5726    1.5970
    -69.00   -0.5957    1.5768
    -68.00   -0.6180    1.5557
    -67.00   -0.6395    1.5338
    -66.00   -0.6602    1.5112
    -65.00   -0.6801    1.4879
    -64.00   -0.6991    1.4638
    -63.00   -0.7171    1.4391
    -62.00   -0.7343    1.4137
    -61.00   -0.7505    1.3877
    -60.00   -0.7657    1.3611
    -59.00   -0.7800    1.3339
    -58.00   -0.7932    1.3063
    -57.00   -0.8054    1.2781
    -56.00   -0.8166    1.2495
    -55.00   -0.8266    1.2205
    -54.00   -0.8357    1.1911
    -53.00   -0.8436    1.1614
    -52.00   -0.8504    1.1314
    -51.00   -0.8561    1.1010
    -50.00   -0.8607    1.0705
    -49.00   -0.8642    1.0398
    -48.00   -0.8665    1.0089
    -47.00   -0.8676    0.9779
    -46.00   -0.8676    0.9468
    -45.00   -0.8664    0.9156
    -44.00   -0.8641    0.8845
    -43.00   -0.8606    0.8534
    -42.00   -0.8559    0.8224
    -41.00   -0.8500    0.7914
    -40.00   -0.8430    0.7607
    -39.00   -0.8348    0.7301
    -38.00   -0.8254    0.6997
    -37.00   -0.8148    0.6696
    -36.00   -0.8031    0.6398
    -35.00   -0.7902    0.6103
    -34.00   -0.7761    0.5812
    -33.00   -0.7609    0.5525
    -32.00   -0.7445    0.5242
    -31.00   -0.7269    0.4964
    -30.00   -0.7082    0.4692
    -29.00   -0.6883    0.4424
    -28.00   -0.6673    0.4163
    -27.00   -0.6451    0.3907
    -26.00   -0.6217    0.3658
    -25.00   -0.5971    0.3415
    -24.00   -0.5714    0.3180
    -23.00   -0.5444    0.2952
    -22.00   -0.5162    0.2731
    -21.00   -0.4867    0.2518
    -20.00   -0.4559    0.2462
    -19.00   -0.4392    0.2401
    -18.00   -0.4360    0.2449
    -17.00   -0.4057    0.2235
    -16.00   -0.3933    0.2177
    -15.00   -0.3913    0.2164
    -14.00   -0.3674    0.2010
    -13.00   -0.3811    0.2056
    -12.00   -0.3513    0.1862
    -11.00   -0.3524    0.1811
    -10.00   -0.3533    0.1756
     -9.00   -0.3422    0.1644
     -8.00   -0.3428    0.1569
     -7.00   -0.3466    0.1498
     -6.00   -0.3556    0.1432
     -5.00   -0.3812    0.1390
     -4.00   -0.3866    0.1295
     -3.00   -0.3937    0.1200
     -2.00   -0.0520    0.0903
     -1.00   -0.0453    0.0856
      0.00   -0.0400    0.0810
      1.00   -0.0366    0.0766
      2.00   -0.0358    0.0722
      3.00   -0.0389    0.0676
      4.00   -0.1275    0.0605
      5.00   -0.1620    0.0546
      6.00    0.1618    0.0664
      7.00    0.3000    0.0732
      8.00    0.4006    0.0787
      9.00    0.4858    0.0849
     10.00    0.5611    0.0918
     11.00    1.2215    0.0675
     12.00    1.2983    0.0834
     13.00    1.0921    0.1181
     14.00    0.9861    0.1534
     15.00    0.8840    0.1835
     16.00    0.9008    0.1964
     17.00    0.9258    0.2072
     18.00    0.9582    0.2182
     19.00    0.9903    0.2287
     20.00    1.0378    0.2469
     21.00    1.0949    0.2348
     22.00    1.0901    0.2562
     23.00    1.0867    0.2784
     24.00    1.0845    0.3013
     25.00    1.0832    0.3250
     26.00    1.0825    0.3494
     27.00    1.0824    0.3745
     28.00    1.0825    0.4002
     29.00    1.0829    0.4265
     30.00    1.0833    0.4534
     31.00    1.0837    0.4808
     32.00    1.0839    0.5088
     33.00    1.0838    0.5372
     34.00    1.0835    0.5661
     35.00    1.0827    0.5954
     36.00    1.0815    0.6250
     37.00    1.0798    0.6550
     38.00    1.0776    0.6853
     39.00    1.0748    0.7159
     40.00    1.0713    0.7467
     41.00    1.0671    0.7777
     42.00    1.0623    0.8088
     43.00    1.0567    0.8401
     44.00    1.0504    0.8714
     45.00    1.0432    0.9028
     46.00    1.0353    0.9341
     47.00    1.0266    0.9654
     48.00    1.0171    0.9967
     49.00    1.0068    1.0278
     50.00    0.9956    1.0588
     51.00    0.9836    1.0896
     52.00    0.9707    1.1201
     53.00    0.9570    1.1504
     54.00    0.9425    1.1804
     55.00    0.9271    1.2101
     56.00    0.9109    1.2393
     57.00    0.8938    1.2682
     58.00    0.8760    1.2966
     59.00    0.8573    1.3245
     60.00    0.8379    1.3520
     61.00    0.8177    1.3788
     62.00    0.7967    1.4051
     63.00    0.7750    1.4308
     64.00    0.7525    1.4558
     65.00    0.7294    1.4802
     66.00    0.7055    1.5038
     67.00    0.6810    1.5267
     68.00    0.6559    1.5489
     69.00    0.6301    1.5702
     70.00    0.6037    1.5908
     71.00    0.5768    1.6105
     72.00    0.5493    1.6293
     73.00    0.5214    1.6473
     74.00    0.4929    1.6643
     75.00    0.4640    1.6804
     76.00    0.4347    1.6956
     77.00    0.4051    1.7098
     78.00    0.3750    1.7230
     79.00    0.3447    1.7352
     80.00    0.3140    1.7464
     81.00    0.2831    1.7566
     82.00    0.2520    1.7657
     83.00    0.2208    1.7737
     84.00    0.1893    1.7807
     85.00    0.1578    1.7867
     86.00    0.1262    1.7915
     87.00    0.0946    1.7953
     88.00    0.0630    1.7979
     89.00    0.0315    1.7995
     90.00    0.0000    1.8000
     91.00   -0.0314    1.7995
     92.00   -0.0628    1.7978
     93.00   -0.0941    1.7951
     94.00   -0.1253    1.7912
     95.00   -0.1563    1.7863
     96.00   -0.1871    1.7803
     97.00   -0.2177    1.7733
     98.00   -0.2481    1.7651
     99.00   -0.2781    1.7560
    100.00   -0.3078    1.7457
    101.00   -0.3371    1.7345
    102.00   -0.3661    1.7222
    103.00   -0.3945    1.7089
    104.00   -0.4225    1.6947
    105.00   -0.4500    1.6794
    106.00   -0.4769    1.6632
    107.00   -0.5033    1.6461
    108.00   -0.5290    1.6281
    109.00   -0.5541    1.6092
    110.00   -0.5785    1.5894
    111.00   -0.6022    1.5688
    112.00   -0.6252    1.5474
    113.00   -0.6474    1.5252
    114.00   -0.6688    1.5022
    115.00   -0.6894    1.4785
    116.00   -0.7092    1.4541
    117.00   -0.7281    1.4290
    118.00   -0.7461    1.4033
    119.00   -0.7632    1.3769
    120.00   -0.7794    1.3500
    121.00   -0.7947    1.3225
    122.00   -0.8089    1.2945
    123.00   -0.8222    1.2661
    124.00   -0.8345    1.2371
    125.00   -0.8457    1.2078
    126.00   -0.8560    1.1781
    127.00   -0.8651    1.1481
    128.00   -0.8733    1.1177
    129.00   -0.8803    1.0871
    130.00   -0.8863    1.0563
    131.00   -0.8912    1.0253
    132.00   -0.8951    0.9941
    133.00   -0.8978    0.9628
    134.00   -0.8995    0.9314
    135.00   -0.9000    0.9000
    136.00   -0.8995    0.8686
    137.00   -0.8978    0.8372
    138.00   -0.8951    0.8059
    139.00   -0.8912    0.7747
    140.00   -0.8863    0.7437
    141.00   -0.8803    0.7129
    142.00   -0.8733    0.6823
    143.00   -0.8651    0.6519
    144.00   -0.8560    0.6219
    145.00   -0.8457    0.5922
    146.00   -0.8345    0.5629
    147.00   -0.8222    0.5339
    148.00   -0.8089    0.5055
    149.00   -0.7947    0.4775
    150.00   -0.7794    0.4500
    151.00   -0.7632    0.4231
    152.00   -0.7461    0.3967
    153.00   -0.7281    0.3710
    154.00   -0.7092    0.3459
    155.00   -0.6894    0.3215
    156.00   -0.6688    0.2978
    157.00   -0.6474    0.2748
    158.00   -0.6252    0.2526
    159.00   -0.6022    0.2312
    160.00   -0.5785    0.2106
    161.00   -0.5541    0.1908
    162.00   -0.5290    0.1719
    163.00   -0.5033    0.1539
    164.00   -0.4769    0.1368
    165.00   -0.4500    0.1206
    166.00   -0.4225    0.1053
    167.00   -0.3945    0.0911
    168.00   -0.3661    0.0778
    169.00   -0.3371    0.0655
    170.00   -0.3078    0.0543
    171.00   -0.2781    0.0440
    172.00   -0.2481    0.0349
    173.00   -0.2177    0.0267
    174.00   -0.1871    0.0197
    175.00   -0.1563    0.0137
    176.00   -0.1253    0.0088
    177.00   -0.0941    0.0049
    178.00   -0.0628    0.0022
    179.00   -0.0314    0.0005
    180.00   -0.0000    0.0000
    180.00    0.0000    0.0000
