AeroDyn airfoil file Created with QBlade v0.96.2 64bit on 02.07.2020 at 17:32:17 Compatible with AeroDyn v13.0.
Polar "T1_Re0.200_M0.00_N9.0 360 M" on Foil "T1_Re0.200_M0.00_N9.0" :: generated by QBlade
1              Number of airfoil tables in this file
0              Table ID parameter
16.00          Stall angle (deg)
0              No longer used, enter zero
0              No longer used, enter zero
0              No longer used, enter zero
-0.00          Angle of attack for zero Cn for linear Cn curve (deg)
6.05352        Cn slope for zero lift for linear Cn curve (1/rad)
0.9115         Cn at stall value for positive angle of attack for linear Cn curve
-0.9118        Cn at stall value for negative angle of attack for linear Cn curve
0.00           Angle of attack for minimum CD (deg)
0.0120         Minimum CD value
   -180.00   -0.0000    0.0060
   -179.00    0.0976    0.0065
   -178.00    0.1940    0.0080
   -177.00    0.2846    0.0106
   -176.00    0.3599    0.0141
   -175.00    0.4097    0.0187
   -174.00    0.4316    0.0242
   -173.00    0.4339    0.0308
   -172.00    0.4287    0.0383
   -171.00    0.4243    0.0468
   -170.00    0.4246    0.0563
   -169.00    0.4302    0.0668
   -168.00    0.4404    0.0781
   -167.00    0.4541    0.0904
   -166.00    0.4705    0.1037
   -165.00    0.4886    0.1178
   -164.00    0.5080    0.1328
   -163.00    0.5280    0.1486
   -162.00    0.5484    0.1653
   -161.00    0.5689    0.1829
   -160.00    0.5892    0.2012
   -159.00    0.6093    0.2203
   -158.00    0.6289    0.2402
   -157.00    0.6479    0.2607
   -156.00    0.6663    0.2820
   -155.00    0.6840    0.3040
   -154.00    0.7008    0.3267
   -153.00    0.7169    0.3499
   -152.00    0.7321    0.3738
   -151.00    0.7463    0.3982
   -150.00    0.7596    0.4232
   -149.00    0.7719    0.4486
   -148.00    0.7832    0.4746
   -147.00    0.7935    0.5010
   -146.00    0.8027    0.5278
   -145.00    0.8108    0.5550
   -144.00    0.8178    0.5825
   -143.00    0.8238    0.6103
   -142.00    0.8286    0.6385
   -141.00    0.8323    0.6668
   -140.00    0.8349    0.6954
   -139.00    0.8363    0.7242
   -138.00    0.8366    0.7531
   -137.00    0.8358    0.7821
   -136.00    0.8339    0.8112
   -135.00    0.8308    0.8403
   -134.00    0.8267    0.8694
   -133.00    0.8214    0.8985
   -132.00    0.8150    0.9275
   -131.00    0.8076    0.9564
   -130.00    0.7990    0.9852
   -129.00    0.7895    1.0138
   -128.00    0.7788    1.0421
   -127.00    0.7672    1.0703
   -126.00    0.7545    1.0981
   -125.00    0.7408    1.1256
   -124.00    0.7262    1.1528
   -123.00    0.7106    1.1796
   -122.00    0.6941    1.2060
   -121.00    0.6768    1.2320
   -120.00    0.6585    1.2575
   -119.00    0.6394    1.2824
   -118.00    0.6195    1.3068
   -117.00    0.5988    1.3307
   -116.00    0.5773    1.3539
   -115.00    0.5552    1.3766
   -114.00    0.5323    1.3986
   -113.00    0.5088    1.4199
   -112.00    0.4846    1.4404
   -111.00    0.4598    1.4603
   -110.00    0.4338    1.4794
   -109.00    0.4080    1.4977
   -108.00    0.3817    1.5153
   -107.00    0.3549    1.5320
   -106.00    0.3278    1.5478
   -105.00    0.3002    1.5628
   -104.00    0.2723    1.5769
   -103.00    0.2441    1.5902
   -102.00    0.2156    1.6025
   -101.00    0.1869    1.6138
   -100.00    0.1580    1.6243
    -99.00    0.1289    1.6338
    -98.00    0.0997    1.6423
    -97.00    0.0704    1.6498
    -96.00    0.0411    1.6564
    -95.00    0.0118    1.6619
    -94.00   -0.0175    1.6665
    -93.00   -0.0468    1.6700
    -92.00   -0.0759    1.6726
    -91.00   -0.1050    1.6741
    -90.00   -0.1338    1.6746
    -89.00   -0.1624    1.6741
    -88.00   -0.1909    1.6725
    -87.00   -0.2190    1.6700
    -86.00   -0.2468    1.6665
    -85.00   -0.2743    1.6619
    -84.00   -0.3015    1.6563
    -83.00   -0.3282    1.6498
    -82.00   -0.3545    1.6422
    -81.00   -0.3803    1.6337
    -80.00   -0.4057    1.6243
    -79.00   -0.4306    1.6138
    -78.00   -0.4549    1.6024
    -77.00   -0.4786    1.5901
    -76.00   -0.5017    1.5769
    -75.00   -0.5243    1.5628
    -74.00   -0.5461    1.5478
    -73.00   -0.5673    1.5319
    -72.00   -0.5879    1.5152
    -71.00   -0.6077    1.4977
    -70.00   -0.6268    1.4793
    -69.00   -0.6451    1.4602
    -68.00   -0.6627    1.4404
    -67.00   -0.6795    1.4198
    -66.00   -0.6955    1.3985
    -65.00   -0.7107    1.3765
    -64.00   -0.7251    1.3539
    -63.00   -0.7386    1.3306
    -62.00   -0.7513    1.3067
    -61.00   -0.7631    1.2823
    -60.00   -0.7741    1.2573
    -59.00   -0.7841    1.2319
    -58.00   -0.7933    1.2059
    -57.00   -0.8016    1.1795
    -56.00   -0.8090    1.1527
    -55.00   -0.8155    1.1255
    -54.00   -0.8211    1.0980
    -53.00   -0.8258    1.0701
    -52.00   -0.8295    1.0420
    -51.00   -0.8324    1.0136
    -50.00   -0.8343    0.9850
    -49.00   -0.8354    0.9562
    -48.00   -0.8355    0.9273
    -47.00   -0.8347    0.8983
    -46.00   -0.8330    0.8692
    -45.00   -0.8305    0.8400
    -44.00   -0.8271    0.8109
    -43.00   -0.8227    0.7818
    -42.00   -0.8176    0.7528
    -41.00   -0.8115    0.7238
    -40.00   -0.8046    0.6950
    -39.00   -0.7969    0.6664
    -38.00   -0.7884    0.6380
    -37.00   -0.7791    0.6099
    -36.00   -0.7690    0.5820
    -35.00   -0.7581    0.5544
    -34.00   -0.7465    0.5272
    -33.00   -0.7341    0.5003
    -32.00   -0.7211    0.4738
    -31.00   -0.7074    0.4478
    -30.00   -0.6931    0.4223
    -29.00   -0.6782    0.3972
    -28.00   -0.6628    0.3727
    -27.00   -0.6469    0.3487
    -26.00   -0.6306    0.3253
    -25.00   -0.6140    0.3025
    -24.00   -0.5971    0.2804
    -23.00   -0.5802    0.2588
    -22.00   -0.5634    0.2380
    -21.00   -0.5470    0.2178
    -20.00   -0.6916    0.2223
    -18.00   -1.0811    0.0930
    -17.00   -1.1613    0.0691
    -16.00   -1.1708    0.0566
    -15.00   -1.1679    0.0469
    -14.00   -1.1452    0.0394
    -13.00   -1.1202    0.0338
    -12.00   -1.0788    0.0291
    -11.00   -1.0395    0.0255
    -10.00   -1.0188    0.0231
     -9.00   -0.9972    0.0211
     -8.00   -0.9649    0.0195
     -7.00   -0.9164    0.0182
     -6.00   -0.7610    0.0171
     -4.00   -0.4549    0.0147
     -2.00   -0.2110    0.0127
     -1.00   -0.1055    0.0122
      0.00    0.0000    0.0120
      1.00    0.1055    0.0122
      2.00    0.2110    0.0127
      3.00    0.3242    0.0136
      4.00    0.4549    0.0147
      6.00    0.7611    0.0171
      7.00    0.9161    0.0182
      8.00    0.9647    0.0195
      9.00    0.9971    0.0211
     10.00    1.0191    0.0231
     11.00    1.0402    0.0255
     12.00    1.0800    0.0291
     13.00    1.1216    0.0338
     14.00    1.1475    0.0393
     15.00    1.1704    0.0469
     16.00    1.1743    0.0565
     17.00    1.1647    0.0691
     18.00    1.0852    0.0929
     19.00    0.9167    0.1432
     20.00    0.8596    0.1670
     21.00    0.8169    0.1908
     22.00    0.7863    0.2147
     23.00    0.7654    0.2387
     24.00    0.7520    0.2629
     25.00    0.7445    0.2873
     26.00    0.7413    0.3119
     27.00    0.7416    0.3369
     28.00    0.7443    0.3622
     29.00    0.7488    0.3879
     30.00    0.7546    0.4139
     31.00    0.7613    0.4403
     32.00    0.7685    0.4671
     33.00    0.7761    0.4942
     34.00    0.7838    0.5216
     35.00    0.7914    0.5493
     36.00    0.7989    0.5773
     37.00    0.8060    0.6056
     38.00    0.8127    0.6341
     39.00    0.8190    0.6628
     40.00    0.8247    0.6917
     41.00    0.8298    0.7208
     42.00    0.8343    0.7499
     43.00    0.8381    0.7791
     44.00    0.8412    0.8084
     45.00    0.8435    0.8377
     46.00    0.8451    0.8670
     47.00    0.8459    0.8963
     48.00    0.8459    0.9254
     49.00    0.8450    0.9545
     50.00    0.8433    0.9833
     51.00    0.8408    1.0120
     52.00    0.8374    1.0405
     53.00    0.8331    1.0687
     54.00    0.8280    1.0967
     55.00    0.8220    1.1243
     56.00    0.8151    1.1516
     57.00    0.8074    1.1784
     58.00    0.7987    1.2049
     59.00    0.7893    1.2309
     60.00    0.7789    1.2564
     61.00    0.7677    1.2814
     62.00    0.7556    1.3059
     63.00    0.7427    1.3298
     64.00    0.7290    1.3531
     65.00    0.7144    1.3758
     66.00    0.6991    1.3978
     67.00    0.6829    1.4192
     68.00    0.6659    1.4398
     69.00    0.6482    1.4597
     70.00    0.6297    1.4788
     71.00    0.6105    1.4972
     72.00    0.5905    1.5147
     73.00    0.5699    1.5315
     74.00    0.5486    1.5473
     75.00    0.5266    1.5624
     76.00    0.5040    1.5765
     77.00    0.4807    1.5897
     78.00    0.4569    1.6021
     79.00    0.4325    1.6135
     80.00    0.4076    1.6239
     81.00    0.3822    1.6334
     82.00    0.3563    1.6420
     83.00    0.3299    1.6495
     84.00    0.3031    1.6561
     85.00    0.2759    1.6616
     86.00    0.2484    1.6662
     87.00    0.2205    1.6698
     88.00    0.1923    1.6723
     89.00    0.1638    1.6739
     90.00    0.1351    1.6744
     91.00    0.1062    1.6739
     92.00    0.0772    1.6724
     93.00    0.0480    1.6698
     94.00    0.0187    1.6663
     95.00   -0.0107    1.6618
     96.00   -0.0400    1.6562
     97.00   -0.0694    1.6497
     98.00   -0.0987    1.6421
     99.00   -0.1279    1.6336
    100.00   -0.1570    1.6242
    101.00   -0.1860    1.6137
    102.00   -0.2147    1.6024
    103.00   -0.2432    1.5901
    104.00   -0.2715    1.5768
    105.00   -0.2994    1.5627
    106.00   -0.3270    1.5477
    107.00   -0.3542    1.5319
    108.00   -0.3810    1.5152
    109.00   -0.4073    1.4977
    110.00   -0.4331    1.4793
    111.00   -0.4598    1.4602
    112.00   -0.4846    1.4404
    113.00   -0.5088    1.4198
    114.00   -0.5323    1.3985
    115.00   -0.5552    1.3765
    116.00   -0.5773    1.3539
    117.00   -0.5988    1.3306
    118.00   -0.6195    1.3068
    119.00   -0.6394    1.2824
    120.00   -0.6585    1.2574
    121.00   -0.6768    1.2319
    122.00   -0.6942    1.2060
    123.00   -0.7107    1.1796
    124.00   -0.7262    1.1528
    125.00   -0.7408    1.1256
    126.00   -0.7545    1.0981
    127.00   -0.7672    1.0702
    128.00   -0.7788    1.0421
    129.00   -0.7895    1.0137
    130.00   -0.7991    0.9852
    131.00   -0.8076    0.9564
    132.00   -0.8151    0.9275
    133.00   -0.8214    0.8985
    134.00   -0.8267    0.8694
    135.00   -0.8309    0.8403
    136.00   -0.8339    0.8112
    137.00   -0.8359    0.7821
    138.00   -0.8367    0.7531
    139.00   -0.8363    0.7242
    140.00   -0.8349    0.6954
    141.00   -0.8323    0.6668
    142.00   -0.8286    0.6385
    143.00   -0.8238    0.6103
    144.00   -0.8179    0.5825
    145.00   -0.8108    0.5549
    146.00   -0.8027    0.5278
    147.00   -0.7935    0.5010
    148.00   -0.7833    0.4746
    149.00   -0.7720    0.4486
    150.00   -0.7597    0.4231
    151.00   -0.7464    0.3982
    152.00   -0.7322    0.3738
    153.00   -0.7170    0.3499
    154.00   -0.7009    0.3267
    155.00   -0.6841    0.3040
    156.00   -0.6664    0.2820
    157.00   -0.6480    0.2607
    158.00   -0.6290    0.2402
    159.00   -0.6094    0.2203
    160.00   -0.5894    0.2012
    161.00   -0.5691    0.1829
    162.00   -0.5486    0.1653
    163.00   -0.5283    0.1486
    164.00   -0.5082    0.1328
    165.00   -0.4889    0.1178
    166.00   -0.4707    0.1037
    167.00   -0.4544    0.0904
    168.00   -0.4406    0.0781
    169.00   -0.4304    0.0668
    170.00   -0.4246    0.0563
    171.00   -0.4241    0.0468
    172.00   -0.4281    0.0383
    173.00   -0.4330    0.0308
    174.00   -0.4305    0.0242
    175.00   -0.4086    0.0187
    176.00   -0.3592    0.0141
    177.00   -0.2843    0.0106
    178.00   -0.1939    0.0080
    179.00   -0.0975    0.0065
    180.00   -0.0000    0.0060
    180.00   -0.0000    0.0060
