AeroDyn airfoil file Created with QBlade v0.96.2 64bit on 02.07.2020 at 17:32:17 Compatible with AeroDyn v13.0.
Polar "T1_Re0.050_M0.00_N9.0 360 M" on Foil "T1_Re0.050_M0.00_N9.0" :: generated by QBlade
1              Number of airfoil tables in this file
0              Table ID parameter
8.00           Stall angle (deg)
0              No longer used, enter zero
0              No longer used, enter zero
0              No longer used, enter zero
0.00           Angle of attack for zero Cn for linear Cn curve (deg)
15.04492       Cn slope for zero lift for linear Cn curve (1/rad)
0.7870         Cn at stall value for positive angle of attack for linear Cn curve
-0.7873        Cn at stall value for negative angle of attack for linear Cn curve
3.00           Angle of attack for minimum CD (deg)
0.0329         Minimum CD value
   -180.00    0.0000    0.0060
   -179.00    0.1352    0.0065
   -178.00    0.2703    0.0080
   -177.00    0.4031    0.0106
   -176.00    0.5214    0.0141
   -175.00    0.6007    0.0187
   -174.00    0.6218    0.0242
   -173.00    0.5942    0.0308
   -172.00    0.5483    0.0383
   -171.00    0.5077    0.0468
   -170.00    0.4810    0.0563
   -169.00    0.4681    0.0668
   -168.00    0.4660    0.0781
   -167.00    0.4716    0.0904
   -166.00    0.4825    0.1037
   -165.00    0.4970    0.1178
   -164.00    0.5138    0.1328
   -163.00    0.5322    0.1486
   -162.00    0.5513    0.1653
   -161.00    0.5709    0.1829
   -160.00    0.5906    0.2012
   -159.00    0.6102    0.2203
   -158.00    0.6295    0.2402
   -157.00    0.6482    0.2607
   -156.00    0.6665    0.2820
   -155.00    0.6840    0.3040
   -154.00    0.7008    0.3267
   -153.00    0.7168    0.3499
   -152.00    0.7319    0.3738
   -151.00    0.7461    0.3982
   -150.00    0.7594    0.4232
   -149.00    0.7716    0.4486
   -148.00    0.7829    0.4746
   -147.00    0.7932    0.5010
   -146.00    0.8024    0.5278
   -145.00    0.8105    0.5550
   -144.00    0.8175    0.5825
   -143.00    0.8235    0.6103
   -142.00    0.8283    0.6385
   -141.00    0.8320    0.6668
   -140.00    0.8346    0.6954
   -139.00    0.8360    0.7242
   -138.00    0.8364    0.7531
   -137.00    0.8356    0.7821
   -136.00    0.8336    0.8112
   -135.00    0.8306    0.8403
   -134.00    0.8264    0.8694
   -133.00    0.8212    0.8985
   -132.00    0.8148    0.9275
   -131.00    0.8074    0.9564
   -130.00    0.7988    0.9852
   -129.00    0.7892    1.0138
   -128.00    0.7786    1.0421
   -127.00    0.7670    1.0703
   -126.00    0.7543    1.0981
   -125.00    0.7406    1.1257
   -124.00    0.7260    1.1528
   -123.00    0.7105    1.1796
   -122.00    0.6940    1.2060
   -121.00    0.6766    1.2320
   -120.00    0.6583    1.2575
   -119.00    0.6392    1.2824
   -118.00    0.6193    1.3068
   -117.00    0.5986    1.3307
   -116.00    0.5772    1.3539
   -115.00    0.5550    1.3766
   -114.00    0.5321    1.3986
   -113.00    0.5086    1.4199
   -112.00    0.4845    1.4404
   -111.00    0.4597    1.4603
   -110.00    0.4344    1.4794
   -109.00    0.4086    1.4977
   -108.00    0.3817    1.5153
   -107.00    0.3550    1.5320
   -106.00    0.3278    1.5478
   -105.00    0.3002    1.5628
   -104.00    0.2723    1.5769
   -103.00    0.2441    1.5902
   -102.00    0.2156    1.6025
   -101.00    0.1869    1.6138
   -100.00    0.1580    1.6243
    -99.00    0.1289    1.6338
    -98.00    0.0997    1.6423
    -97.00    0.0704    1.6498
    -96.00    0.0411    1.6564
    -95.00    0.0118    1.6619
    -94.00   -0.0175    1.6665
    -93.00   -0.0468    1.6700
    -92.00   -0.0759    1.6726
    -91.00   -0.1049    1.6741
    -90.00   -0.1338    1.6746
    -89.00   -0.1624    1.6741
    -88.00   -0.1908    1.6726
    -87.00   -0.2190    1.6700
    -86.00   -0.2468    1.6665
    -85.00   -0.2743    1.6619
    -84.00   -0.3014    1.6564
    -83.00   -0.3282    1.6498
    -82.00   -0.3545    1.6423
    -81.00   -0.3803    1.6337
    -80.00   -0.4057    1.6243
    -79.00   -0.4305    1.6138
    -78.00   -0.4548    1.6024
    -77.00   -0.4786    1.5901
    -76.00   -0.5017    1.5769
    -75.00   -0.5242    1.5628
    -74.00   -0.5461    1.5478
    -73.00   -0.5673    1.5319
    -72.00   -0.5878    1.5152
    -71.00   -0.6077    1.4977
    -70.00   -0.6268    1.4794
    -69.00   -0.6451    1.4603
    -68.00   -0.6627    1.4404
    -67.00   -0.6795    1.4198
    -66.00   -0.6955    1.3985
    -65.00   -0.7107    1.3765
    -64.00   -0.7250    1.3539
    -63.00   -0.7386    1.3306
    -62.00   -0.7513    1.3068
    -61.00   -0.7631    1.2823
    -60.00   -0.7740    1.2574
    -59.00   -0.7841    1.2319
    -58.00   -0.7933    1.2060
    -57.00   -0.8016    1.1796
    -56.00   -0.8089    1.1527
    -55.00   -0.8154    1.1256
    -54.00   -0.8210    1.0980
    -53.00   -0.8257    1.0702
    -52.00   -0.8294    1.0420
    -51.00   -0.8323    1.0136
    -50.00   -0.8342    0.9851
    -49.00   -0.8352    0.9563
    -48.00   -0.8353    0.9274
    -47.00   -0.8346    0.8984
    -46.00   -0.8329    0.8693
    -45.00   -0.8303    0.8401
    -44.00   -0.8268    0.8110
    -43.00   -0.8225    0.7819
    -42.00   -0.8173    0.7529
    -41.00   -0.8112    0.7240
    -40.00   -0.8043    0.6952
    -39.00   -0.7966    0.6666
    -38.00   -0.7880    0.6382
    -37.00   -0.7786    0.6101
    -36.00   -0.7685    0.5822
    -35.00   -0.7575    0.5546
    -34.00   -0.7458    0.5274
    -33.00   -0.7334    0.5006
    -32.00   -0.7203    0.4742
    -31.00   -0.7065    0.4482
    -30.00   -0.6920    0.4227
    -29.00   -0.6769    0.3977
    -28.00   -0.6612    0.3732
    -27.00   -0.6450    0.3493
    -26.00   -0.6283    0.3259
    -25.00   -0.6112    0.3032
    -24.00   -0.5937    0.2812
    -23.00   -0.5759    0.2598
    -22.00   -0.5581    0.2391
    -21.00   -0.5402    0.2190
    -20.00   -0.6566    0.2385
    -19.00   -0.6478    0.2340
    -18.00   -0.6047    0.2180
    -17.00   -0.5697    0.2041
    -16.00   -0.5332    0.1896
    -15.00   -0.5045    0.1769
    -14.00   -0.4890    0.1668
    -13.00   -0.4711    0.1548
    -12.00   -0.4652    0.1429
    -11.00   -0.4900    0.1184
    -10.00   -0.7504    0.0663
     -9.00   -0.8594    0.0508
     -8.00   -0.8621    0.0439
     -7.00   -0.8396    0.0392
     -6.00   -0.7878    0.0366
     -5.00   -0.7298    0.0349
     -4.00   -0.6755    0.0336
     -3.00   -0.6198    0.0329
     -2.00   -0.5623    0.0333
     -1.00   -0.3953    0.0369
      0.00   -0.0000    0.0413
      1.00    0.3953    0.0369
      2.00    0.5622    0.0333
      3.00    0.6195    0.0329
      4.00    0.6753    0.0336
      5.00    0.7296    0.0349
      6.00    0.7875    0.0366
      7.00    0.8393    0.0392
      8.00    0.8620    0.0439
     10.00    0.7503    0.0664
     11.00    0.4892    0.1178
     13.00    0.0865    0.0405
     14.00    0.0850    0.0424
     15.00    0.0859    0.0454
     16.00    0.1006    0.0501
     17.00    0.1245    0.0569
     18.00    0.1647    0.0676
     19.00    0.1805    0.0727
     20.00    0.1992    0.0803
     21.00    0.4169    0.2273
     22.00    0.4512    0.2466
     23.00    0.4827    0.2666
     24.00    0.5117    0.2874
     25.00    0.5387    0.3090
     26.00    0.5639    0.3312
     27.00    0.5875    0.3541
     28.00    0.6096    0.3777
     29.00    0.6304    0.4018
     30.00    0.6500    0.4265
     31.00    0.6683    0.4518
     32.00    0.6855    0.4775
     33.00    0.7017    0.5037
     34.00    0.7168    0.5304
     35.00    0.7308    0.5574
     36.00    0.7439    0.5848
     37.00    0.7560    0.6125
     38.00    0.7670    0.6405
     39.00    0.7771    0.6688
     40.00    0.7863    0.6972
     41.00    0.7944    0.7259
     42.00    0.8016    0.7547
     43.00    0.8079    0.7836
     44.00    0.8132    0.8126
     45.00    0.8175    0.8417
     46.00    0.8208    0.8707
     47.00    0.8232    0.8997
     48.00    0.8247    0.9287
     49.00    0.8252    0.9575
     50.00    0.8247    0.9863
     51.00    0.8233    1.0148
     52.00    0.8210    1.0431
     53.00    0.8176    1.0712
     54.00    0.8134    1.0990
     55.00    0.8082    1.1265
     56.00    0.8021    1.1536
     57.00    0.7950    1.1804
     58.00    0.7871    1.2068
     59.00    0.7782    1.2327
     60.00    0.7684    1.2581
     61.00    0.7577    1.2831
     62.00    0.7461    1.3075
     63.00    0.7337    1.3313
     64.00    0.7204    1.3545
     65.00    0.7062    1.3771
     66.00    0.6912    1.3991
     67.00    0.6754    1.4203
     68.00    0.6587    1.4409
     69.00    0.6413    1.4608
     70.00    0.6231    1.4798
     71.00    0.6042    1.4982
     72.00    0.5845    1.5157
     73.00    0.5641    1.5323
     74.00    0.5430    1.5482
     75.00    0.5212    1.5632
     76.00    0.4988    1.5773
     77.00    0.4758    1.5905
     78.00    0.4521    1.6028
     79.00    0.4279    1.6141
     80.00    0.4032    1.6246
     81.00    0.3779    1.6340
     82.00    0.3521    1.6425
     83.00    0.3259    1.6501
     84.00    0.2993    1.6566
     85.00    0.2722    1.6622
     86.00    0.2448    1.6667
     87.00    0.2170    1.6702
     88.00    0.1889    1.6728
     89.00    0.1606    1.6743
     90.00    0.1320    1.6748
     91.00    0.1032    1.6743
     92.00    0.0742    1.6727
     93.00    0.0451    1.6702
     94.00    0.0159    1.6666
     95.00   -0.0133    1.6621
     96.00   -0.0426    1.6565
     97.00   -0.0719    1.6500
     98.00   -0.1011    1.6424
     99.00   -0.1303    1.6339
    100.00   -0.1593    1.6244
    101.00   -0.1882    1.6140
    102.00   -0.2169    1.6026
    103.00   -0.2453    1.5903
    104.00   -0.2735    1.5770
    105.00   -0.3014    1.5629
    106.00   -0.3289    1.5479
    107.00   -0.3561    1.5321
    108.00   -0.3828    1.5153
    109.00   -0.4086    1.4978
    110.00   -0.4344    1.4795
    111.00   -0.4597    1.4604
    112.00   -0.4845    1.4405
    113.00   -0.5086    1.4199
    114.00   -0.5322    1.3986
    115.00   -0.5550    1.3766
    116.00   -0.5772    1.3540
    117.00   -0.5986    1.3307
    118.00   -0.6193    1.3069
    119.00   -0.6393    1.2825
    120.00   -0.6583    1.2575
    121.00   -0.6766    1.2320
    122.00   -0.6940    1.2061
    123.00   -0.7105    1.1797
    124.00   -0.7260    1.1529
    125.00   -0.7407    1.1257
    126.00   -0.7543    1.0981
    127.00   -0.7670    1.0703
    128.00   -0.7786    1.0422
    129.00   -0.7893    1.0138
    130.00   -0.7988    0.9852
    131.00   -0.8074    0.9564
    132.00   -0.8148    0.9275
    133.00   -0.8212    0.8985
    134.00   -0.8265    0.8694
    135.00   -0.8306    0.8403
    136.00   -0.8337    0.8112
    137.00   -0.8356    0.7821
    138.00   -0.8364    0.7531
    139.00   -0.8360    0.7242
    140.00   -0.8346    0.6954
    141.00   -0.8320    0.6669
    142.00   -0.8283    0.6385
    143.00   -0.8235    0.6103
    144.00   -0.8175    0.5825
    145.00   -0.8105    0.5550
    146.00   -0.8024    0.5278
    147.00   -0.7932    0.5010
    148.00   -0.7830    0.4746
    149.00   -0.7717    0.4486
    150.00   -0.7594    0.4232
    151.00   -0.7461    0.3982
    152.00   -0.7319    0.3738
    153.00   -0.7168    0.3499
    154.00   -0.7008    0.3267
    155.00   -0.6841    0.3040
    156.00   -0.6665    0.2820
    157.00   -0.6483    0.2608
    158.00   -0.6296    0.2402
    159.00   -0.6103    0.2203
    160.00   -0.5908    0.2012
    161.00   -0.5711    0.1829
    162.00   -0.5515    0.1653
    163.00   -0.5323    0.1486
    164.00   -0.5140    0.1328
    165.00   -0.4972    0.1178
    166.00   -0.4827    0.1037
    167.00   -0.4718    0.0904
    168.00   -0.4662    0.0781
    169.00   -0.4682    0.0668
    170.00   -0.4810    0.0563
    171.00   -0.5074    0.0468
    172.00   -0.5476    0.0383
    173.00   -0.5931    0.0308
    174.00   -0.6205    0.0242
    175.00   -0.5997    0.0187
    176.00   -0.5209    0.0141
    177.00   -0.4030    0.0106
    178.00   -0.2703    0.0080
    179.00   -0.1352    0.0065
    180.00    0.0000    0.0060
    180.00    0.0000    0.0060
