AeroDyn airfoil file Created with QBlade v0.96.2 64bit on 02.07.2020 at 17:32:17 Compatible with AeroDyn v13.0.
Polar "T1_Re0.100_M0.00_N9.0 360 M" on Foil "T1_Re0.100_M0.00_N9.0" :: generated by QBlade
1              Number of airfoil tables in this file
0              Table ID parameter
13.00          Stall angle (deg)
0              No longer used, enter zero
0              No longer used, enter zero
0              No longer used, enter zero
0.00           Angle of attack for zero Cn for linear Cn curve (deg)
8.80391        Cn slope for zero lift for linear Cn curve (1/rad)
-0.6111        Cn at stall value for positive angle of attack for linear Cn curve
-0.6811        Cn at stall value for negative angle of attack for linear Cn curve
0.00           Angle of attack for minimum CD (deg)
0.0205         Minimum CD value
   -180.00    0.0000    0.0060
   -179.00    0.1248    0.0065
   -178.00    0.2494    0.0080
   -177.00    0.3700    0.0106
   -176.00    0.4740    0.0141
   -175.00    0.5406    0.0187
   -174.00    0.5584    0.0242
   -173.00    0.5390    0.0308
   -172.00    0.5067    0.0383
   -171.00    0.4789    0.0468
   -170.00    0.4618    0.0563
   -169.00    0.4554    0.0668
   -168.00    0.4575    0.0781
   -167.00    0.4659    0.0904
   -166.00    0.4787    0.1037
   -165.00    0.4944    0.1178
   -164.00    0.5120    0.1328
   -163.00    0.5309    0.1486
   -162.00    0.5504    0.1653
   -161.00    0.5703    0.1829
   -160.00    0.5902    0.2012
   -159.00    0.6099    0.2203
   -158.00    0.6293    0.2402
   -157.00    0.6481    0.2607
   -156.00    0.6664    0.2820
   -155.00    0.6840    0.3040
   -154.00    0.7008    0.3267
   -153.00    0.7168    0.3499
   -152.00    0.7319    0.3738
   -151.00    0.7462    0.3982
   -150.00    0.7594    0.4232
   -149.00    0.7717    0.4486
   -148.00    0.7830    0.4746
   -147.00    0.7933    0.5010
   -146.00    0.8024    0.5278
   -145.00    0.8106    0.5550
   -144.00    0.8176    0.5825
   -143.00    0.8235    0.6103
   -142.00    0.8284    0.6385
   -141.00    0.8321    0.6668
   -140.00    0.8346    0.6954
   -139.00    0.8361    0.7242
   -138.00    0.8364    0.7531
   -137.00    0.8356    0.7821
   -136.00    0.8337    0.8112
   -135.00    0.8307    0.8403
   -134.00    0.8265    0.8694
   -133.00    0.8212    0.8985
   -132.00    0.8149    0.9275
   -131.00    0.8074    0.9564
   -130.00    0.7989    0.9852
   -129.00    0.7893    1.0138
   -128.00    0.7787    1.0421
   -127.00    0.7670    1.0703
   -126.00    0.7543    1.0981
   -125.00    0.7407    1.1257
   -124.00    0.7261    1.1528
   -123.00    0.7105    1.1796
   -122.00    0.6940    1.2060
   -121.00    0.6766    1.2320
   -120.00    0.6584    1.2575
   -119.00    0.6393    1.2824
   -118.00    0.6194    1.3068
   -117.00    0.5987    1.3307
   -116.00    0.5772    1.3539
   -115.00    0.5551    1.3766
   -114.00    0.5322    1.3986
   -113.00    0.5087    1.4199
   -112.00    0.4845    1.4404
   -111.00    0.4597    1.4603
   -110.00    0.4344    1.4794
   -109.00    0.4080    1.4977
   -108.00    0.3817    1.5153
   -107.00    0.3550    1.5320
   -106.00    0.3278    1.5478
   -105.00    0.3002    1.5628
   -104.00    0.2723    1.5769
   -103.00    0.2441    1.5902
   -102.00    0.2156    1.6025
   -101.00    0.1869    1.6138
   -100.00    0.1580    1.6243
    -99.00    0.1289    1.6338
    -98.00    0.0997    1.6423
    -97.00    0.0704    1.6498
    -96.00    0.0411    1.6564
    -95.00    0.0118    1.6619
    -94.00   -0.0175    1.6665
    -93.00   -0.0468    1.6700
    -92.00   -0.0759    1.6726
    -91.00   -0.1049    1.6741
    -90.00   -0.1338    1.6746
    -89.00   -0.1624    1.6741
    -88.00   -0.1908    1.6726
    -87.00   -0.2190    1.6700
    -86.00   -0.2468    1.6665
    -85.00   -0.2743    1.6619
    -84.00   -0.3014    1.6564
    -83.00   -0.3282    1.6498
    -82.00   -0.3545    1.6423
    -81.00   -0.3803    1.6337
    -80.00   -0.4057    1.6243
    -79.00   -0.4305    1.6138
    -78.00   -0.4548    1.6024
    -77.00   -0.4786    1.5901
    -76.00   -0.5017    1.5769
    -75.00   -0.5242    1.5628
    -74.00   -0.5461    1.5478
    -73.00   -0.5673    1.5319
    -72.00   -0.5878    1.5152
    -71.00   -0.6077    1.4977
    -70.00   -0.6268    1.4794
    -69.00   -0.6451    1.4603
    -68.00   -0.6627    1.4404
    -67.00   -0.6795    1.4198
    -66.00   -0.6955    1.3985
    -65.00   -0.7107    1.3765
    -64.00   -0.7251    1.3539
    -63.00   -0.7386    1.3306
    -62.00   -0.7513    1.3068
    -61.00   -0.7631    1.2823
    -60.00   -0.7740    1.2574
    -59.00   -0.7841    1.2319
    -58.00   -0.7933    1.2059
    -57.00   -0.8016    1.1796
    -56.00   -0.8090    1.1527
    -55.00   -0.8154    1.1255
    -54.00   -0.8210    1.0980
    -53.00   -0.8257    1.0702
    -52.00   -0.8294    1.0420
    -51.00   -0.8323    1.0136
    -50.00   -0.8342    0.9850
    -49.00   -0.8353    0.9563
    -48.00   -0.8354    0.9274
    -47.00   -0.8346    0.8983
    -46.00   -0.8329    0.8692
    -45.00   -0.8303    0.8401
    -44.00   -0.8269    0.8110
    -43.00   -0.8226    0.7819
    -42.00   -0.8174    0.7529
    -41.00   -0.8113    0.7239
    -40.00   -0.8044    0.6952
    -39.00   -0.7966    0.6666
    -38.00   -0.7881    0.6382
    -37.00   -0.7787    0.6100
    -36.00   -0.7686    0.5821
    -35.00   -0.7576    0.5546
    -34.00   -0.7460    0.5274
    -33.00   -0.7335    0.5005
    -32.00   -0.7204    0.4741
    -31.00   -0.7066    0.4481
    -30.00   -0.6922    0.4226
    -29.00   -0.6771    0.3976
    -28.00   -0.6615    0.3731
    -27.00   -0.6454    0.3492
    -26.00   -0.6287    0.3258
    -25.00   -0.6117    0.3031
    -24.00   -0.5943    0.2810
    -23.00   -0.5767    0.2596
    -22.00   -0.5590    0.2389
    -21.00   -0.5414    0.2188
    -20.00   -0.6645    0.2319
    -19.00   -0.6433    0.2183
    -18.00   -0.6480    0.2097
    -17.00   -0.5800    0.1932
    -16.00   -0.5653    0.1789
    -15.00   -0.6350    0.1461
    -14.00   -1.0712    0.0576
    -13.00   -1.1208    0.0468
    -12.00   -1.1054    0.0405
    -11.00   -1.0788    0.0357
    -10.00   -1.0415    0.0318
     -9.00   -0.9986    0.0285
     -8.00   -0.9537    0.0262
     -7.00   -0.9006    0.0242
     -6.00   -0.8417    0.0228
     -5.00   -0.7759    0.0219
     -4.00   -0.6370    0.0219
     -3.00   -0.4727    0.0218
     -2.00   -0.3048    0.0214
     -1.00   -0.1422    0.0207
      0.00   -0.0000    0.0205
      1.00    0.1422    0.0207
      2.00    0.3046    0.0214
      3.00    0.4726    0.0218
      4.00    0.6369    0.0219
      5.00    0.7756    0.0219
      6.00    0.8414    0.0228
      7.00    0.9004    0.0242
      8.00    0.9536    0.0262
      9.00    0.9985    0.0285
     10.00    1.0416    0.0318
     11.00    1.0790    0.0357
     12.00    1.1061    0.0405
     13.00    1.1217    0.0468
     14.00    1.0741    0.0576
     15.00    0.9520    0.0810
     16.00    0.5687    0.1793
     17.00    0.5827    0.1937
     18.00    0.6526    0.2107
     19.00    0.6464    0.2192
     20.00    0.6670    0.2331
     21.00    0.6182    0.2132
     22.00    0.6208    0.2341
     23.00    0.6270    0.2556
     24.00    0.6357    0.2776
     25.00    0.6462    0.3001
     26.00    0.6577    0.3232
     27.00    0.6699    0.3469
     28.00    0.6825    0.3711
     29.00    0.6952    0.3958
     30.00    0.7079    0.4210
     31.00    0.7203    0.4467
     32.00    0.7324    0.4728
     33.00    0.7441    0.4994
     34.00    0.7553    0.5263
     35.00    0.7660    0.5536
     36.00    0.7760    0.5813
     37.00    0.7854    0.6092
     38.00    0.7941    0.6374
     39.00    0.8021    0.6659
     40.00    0.8094    0.6946
     41.00    0.8158    0.7234
     42.00    0.8215    0.7523
     43.00    0.8263    0.7814
     44.00    0.8304    0.8105
     45.00    0.8335    0.8397
     46.00    0.8359    0.8689
     47.00    0.8373    0.8980
     48.00    0.8379    0.9270
     49.00    0.8376    0.9559
     50.00    0.8364    0.9847
     51.00    0.8343    1.0134
     52.00    0.8313    1.0418
     53.00    0.8275    1.0699
     54.00    0.8227    1.0978
     55.00    0.8170    1.1253
     56.00    0.8104    1.1525
     57.00    0.8029    1.1794
     58.00    0.7946    1.2058
     59.00    0.7853    1.2317
     60.00    0.7752    1.2572
     61.00    0.7642    1.2822
     62.00    0.7523    1.3066
     63.00    0.7396    1.3305
     64.00    0.7260    1.3538
     65.00    0.7116    1.3764
     66.00    0.6963    1.3984
     67.00    0.6803    1.4197
     68.00    0.6634    1.4403
     69.00    0.6458    1.4602
     70.00    0.6274    1.4793
     71.00    0.6083    1.4976
     72.00    0.5885    1.5151
     73.00    0.5679    1.5318
     74.00    0.5467    1.5477
     75.00    0.5248    1.5627
     76.00    0.5022    1.5768
     77.00    0.4791    1.5901
     78.00    0.4553    1.6024
     79.00    0.4310    1.6138
     80.00    0.4061    1.6242
     81.00    0.3808    1.6337
     82.00    0.3549    1.6422
     83.00    0.3286    1.6497
     84.00    0.3018    1.6563
     85.00    0.2747    1.6619
     86.00    0.2472    1.6664
     87.00    0.2193    1.6700
     88.00    0.1912    1.6725
     89.00    0.1627    1.6740
     90.00    0.1341    1.6746
     91.00    0.1052    1.6740
     92.00    0.0762    1.6725
     93.00    0.0470    1.6700
     94.00    0.0178    1.6664
     95.00   -0.0115    1.6619
     96.00   -0.0409    1.6563
     97.00   -0.0702    1.6498
     98.00   -0.0995    1.6423
     99.00   -0.1287    1.6337
    100.00   -0.1578    1.6243
    101.00   -0.1867    1.6138
    102.00   -0.2154    1.6024
    103.00   -0.2439    1.5901
    104.00   -0.2721    1.5769
    105.00   -0.3000    1.5628
    106.00   -0.3276    1.5478
    107.00   -0.3548    1.5320
    108.00   -0.3815    1.5152
    109.00   -0.4079    1.4977
    110.00   -0.4344    1.4794
    111.00   -0.4598    1.4603
    112.00   -0.4845    1.4404
    113.00   -0.5087    1.4198
    114.00   -0.5322    1.3985
    115.00   -0.5551    1.3766
    116.00   -0.5772    1.3539
    117.00   -0.5987    1.3307
    118.00   -0.6194    1.3068
    119.00   -0.6393    1.2824
    120.00   -0.6584    1.2574
    121.00   -0.6766    1.2320
    122.00   -0.6940    1.2060
    123.00   -0.7105    1.1796
    124.00   -0.7261    1.1528
    125.00   -0.7407    1.1256
    126.00   -0.7544    1.0981
    127.00   -0.7670    1.0703
    128.00   -0.7787    1.0421
    129.00   -0.7893    1.0138
    130.00   -0.7989    0.9852
    131.00   -0.8074    0.9564
    132.00   -0.8149    0.9275
    133.00   -0.8212    0.8985
    134.00   -0.8265    0.8694
    135.00   -0.8307    0.8403
    136.00   -0.8337    0.8112
    137.00   -0.8357    0.7821
    138.00   -0.8365    0.7531
    139.00   -0.8361    0.7242
    140.00   -0.8347    0.6954
    141.00   -0.8321    0.6668
    142.00   -0.8284    0.6385
    143.00   -0.8236    0.6103
    144.00   -0.8176    0.5825
    145.00   -0.8106    0.5550
    146.00   -0.8025    0.5278
    147.00   -0.7933    0.5010
    148.00   -0.7831    0.4746
    149.00   -0.7718    0.4486
    150.00   -0.7595    0.4232
    151.00   -0.7462    0.3982
    152.00   -0.7320    0.3738
    153.00   -0.7169    0.3499
    154.00   -0.7009    0.3267
    155.00   -0.6841    0.3040
    156.00   -0.6665    0.2820
    157.00   -0.6482    0.2607
    158.00   -0.6294    0.2402
    159.00   -0.6101    0.2203
    160.00   -0.5904    0.2012
    161.00   -0.5705    0.1829
    162.00   -0.5506    0.1653
    163.00   -0.5311    0.1486
    164.00   -0.5122    0.1328
    165.00   -0.4946    0.1178
    166.00   -0.4789    0.1037
    167.00   -0.4661    0.0904
    168.00   -0.4577    0.0781
    169.00   -0.4555    0.0668
    170.00   -0.4618    0.0563
    171.00   -0.4786    0.0468
    172.00   -0.5061    0.0383
    173.00   -0.5380    0.0308
    174.00   -0.5571    0.0242
    175.00   -0.5395    0.0187
    176.00   -0.4734    0.0141
    177.00   -0.3698    0.0106
    178.00   -0.2493    0.0080
    179.00   -0.1248    0.0065
    180.00    0.0000    0.0060
    180.00    0.0000    0.0060
