AeroDyn airfoil file Created with QBlade v0.96.2 64bit on 17.06.2020 at 08:11:36 Compatible with AeroDyn v13.0.
Polar "cp10_Re0.050 360 M" on Foil "cp10_Re0.050" :: generated by QBlade
1              Number of airfoil tables in this file
0              Table ID parameter
12.00          Stall angle (deg)
0              No longer used, enter zero
0              No longer used, enter zero
0              No longer used, enter zero
3.71           Angle of attack for zero Cn for linear Cn curve (deg)
4.77401        Cn slope for zero lift for linear Cn curve (1/rad)
-0.3831        Cn at stall value for positive angle of attack for linear Cn curve
-0.6735        Cn at stall value for negative angle of attack for linear Cn curve
7.50           Angle of attack for minimum CD (deg)
0.0428         Minimum CD value
   -180.00    0.1122    0.0060
   -179.00    0.1770    0.0065
   -178.00    0.2418    0.0081
   -177.00    0.3065    0.0108
   -176.00    0.3711    0.0145
   -175.00    0.4342    0.0192
   -174.00    0.4926    0.0250
   -173.00    0.5419    0.0318
   -172.00    0.5779    0.0396
   -171.00    0.6001    0.0484
   -170.00    0.6124    0.0582
   -169.00    0.6204    0.0690
   -168.00    0.6288    0.0807
   -167.00    0.6397    0.0934
   -166.00    0.6539    0.1070
   -165.00    0.6710    0.1215
   -164.00    0.6905    0.1368
   -163.00    0.7118    0.1531
   -162.00    0.7341    0.1701
   -161.00    0.7571    0.1880
   -160.00    0.7804    0.2067
   -159.00    0.8037    0.2261
   -158.00    0.8268    0.2463
   -157.00    0.8494    0.2672
   -156.00    0.8715    0.2887
   -155.00    0.8928    0.3110
   -154.00    0.9134    0.3338
   -153.00    0.9330    0.3573
   -152.00    0.9517    0.3813
   -151.00    0.9694    0.4059
   -150.00    0.9859    0.4310
   -149.00    1.0013    0.4565
   -148.00    1.0155    0.4825
   -147.00    1.0285    0.5089
   -146.00    1.0402    0.5357
   -145.00    1.0506    0.5629
   -144.00    1.0596    0.5903
   -143.00    1.0673    0.6180
   -142.00    1.0736    0.6460
   -141.00    1.0786    0.6742
   -140.00    1.0821    0.7026
   -139.00    1.0842    0.7310
   -138.00    1.0849    0.7597
   -137.00    1.0841    0.7883
   -136.00    1.0819    0.8170
   -135.00    1.0783    0.8458
   -134.00    1.0732    0.8744
   -133.00    1.0667    0.9031
   -132.00    1.0587    0.9316
   -131.00    1.0494    0.9600
   -130.00    1.0386    0.9882
   -129.00    1.0264    1.0162
   -128.00    1.0129    1.0440
   -127.00    0.9980    1.0715
   -126.00    0.9817    1.0987
   -125.00    0.9642    1.1256
   -124.00    0.9453    1.1521
   -123.00    0.9252    1.1782
   -122.00    0.9038    1.2039
   -121.00    0.8813    1.2291
   -120.00    0.8575    1.2539
   -119.00    0.8327    1.2781
   -118.00    0.8067    1.3018
   -117.00    0.7796    1.3250
   -116.00    0.7516    1.3475
   -115.00    0.7225    1.3694
   -114.00    0.6925    1.3907
   -113.00    0.6616    1.4113
   -112.00    0.6298    1.4312
   -111.00    0.5972    1.4504
   -110.00    0.5638    1.4688
   -109.00    0.5297    1.4865
   -108.00    0.4950    1.5034
   -107.00    0.4588    1.5195
   -106.00    0.4228    1.5348
   -105.00    0.3863    1.5492
   -104.00    0.3494    1.5628
   -103.00    0.3120    1.5755
   -102.00    0.2742    1.5873
   -101.00    0.2361    1.5983
   -100.00    0.1977    1.6083
    -99.00    0.1591    1.6174
    -98.00    0.1203    1.6256
    -97.00    0.0814    1.6328
    -96.00    0.0425    1.6391
    -95.00    0.0035    1.6445
    -94.00   -0.0355    1.6488
    -93.00   -0.0744    1.6522
    -92.00   -0.1132    1.6547
    -91.00   -0.1518    1.6561
    -90.00   -0.1901    1.6566
    -89.00   -0.2282    1.6561
    -88.00   -0.2660    1.6547
    -87.00   -0.3034    1.6522
    -86.00   -0.3404    1.6488
    -85.00   -0.3769    1.6444
    -84.00   -0.4129    1.6391
    -83.00   -0.4484    1.6328
    -82.00   -0.4833    1.6256
    -81.00   -0.5176    1.6174
    -80.00   -0.5512    1.6083
    -79.00   -0.5841    1.5982
    -78.00   -0.6162    1.5873
    -77.00   -0.6476    1.5754
    -76.00   -0.6782    1.5627
    -75.00   -0.7079    1.5491
    -74.00   -0.7367    1.5347
    -73.00   -0.7647    1.5194
    -72.00   -0.7916    1.5033
    -71.00   -0.8177    1.4864
    -70.00   -0.8427    1.4687
    -69.00   -0.8667    1.4502
    -68.00   -0.8897    1.4311
    -67.00   -0.9116    1.4111
    -66.00   -0.9324    1.3905
    -65.00   -0.9522    1.3693
    -64.00   -0.9708    1.3473
    -63.00   -0.9883    1.3248
    -62.00   -1.0046    1.3017
    -61.00   -1.0197    1.2779
    -60.00   -1.0337    1.2537
    -59.00   -1.0465    1.2289
    -58.00   -1.0582    1.2037
    -57.00   -1.0686    1.1780
    -56.00   -1.0778    1.1518
    -55.00   -1.0858    1.1253
    -54.00   -1.0927    1.0984
    -53.00   -1.0983    1.0712
    -52.00   -1.1027    1.0436
    -51.00   -1.1059    1.0158
    -50.00   -1.1079    0.9878
    -49.00   -1.1088    0.9596
    -48.00   -1.1084    0.9312
    -47.00   -1.1069    0.9026
    -46.00   -1.1042    0.8740
    -45.00   -1.1004    0.8453
    -44.00   -1.0954    0.8165
    -43.00   -1.0893    0.7878
    -42.00   -1.0821    0.7591
    -41.00   -1.0739    0.7304
    -40.00   -1.0645    0.7019
    -39.00   -1.0542    0.6735
    -38.00   -1.0428    0.6453
    -37.00   -1.0304    0.6172
    -36.00   -1.0171    0.5894
    -35.00   -1.0028    0.5619
    -34.00   -0.9876    0.5347
    -33.00   -0.9716    0.5078
    -32.00   -0.9547    0.4813
    -31.00   -0.9370    0.4552
    -30.00   -0.9186    0.4295
    -29.00   -0.8995    0.4043
    -28.00   -0.8797    0.3796
    -27.00   -0.8594    0.3554
    -26.00   -0.8385    0.3317
    -25.00   -0.8172    0.3087
    -24.00   -0.7956    0.2862
    -23.00   -0.7738    0.2643
    -22.00   -0.7519    0.2430
    -21.00   -0.7302    0.2224
    -20.00   -0.7090    0.2025
    -19.00   -0.6885    0.1832
    -18.00   -0.6692    0.1646
    -17.00   -0.6519    0.1466
    -16.00   -0.6375    0.1292
    -15.00   -0.6274    0.1124
    -14.00   -0.6234    0.0962
    -13.00   -0.6282    0.0806
    -12.00   -0.6449    0.0654
    -11.00   -0.6762    0.0510
    -10.00   -0.3590    0.1704
     -9.50   -0.3735    0.1732
     -8.00   -0.3664    0.1559
     -7.50   -0.3560    0.1485
     -7.00   -0.3539    0.1440
     -6.50   -0.3547    0.1404
     -6.00   -0.3579    0.1372
     -5.50   -0.3644    0.1346
     -5.00   -0.3775    0.1333
     -4.50   -0.4021    0.1339
     -4.00   -0.4140    0.1355
     -3.00   -0.4050    0.1217
     -2.50   -0.3997    0.1153
     -2.00   -0.3924    0.1107
     -1.50   -0.3777    0.1070
     -1.00   -0.3191    0.1078
     -0.50   -0.3233    0.0986
      0.00   -0.3087    0.0933
      1.00   -0.2305    0.0857
      1.50   -0.1986    0.0820
      2.00   -0.1507    0.0788
      2.50   -0.0938    0.0777
      3.50   -0.0149    0.0730
      4.00    0.0201    0.0701
      4.50    0.0690    0.0693
      5.00    0.1109    0.0685
      5.50    0.1384    0.0680
      6.00    0.1671    0.0648
      6.50    0.2262    0.0673
      7.00    0.3401    0.0678
      7.50    0.8469    0.0428
      8.00    0.8663    0.0458
      8.50    0.8944    0.0483
      9.00    0.9429    0.0495
      9.50    1.0600    0.0479
     10.00    1.3180    0.0491
     10.50    1.4143    0.0551
     11.00    1.4586    0.0608
     11.50    1.4944    0.0682
     12.00    1.5003    0.0732
     12.50    1.4399    0.0778
     13.00    1.4550    0.0880
     13.50    1.3371    0.0937
     14.00    1.1929    0.1097
     14.50    0.8446    0.1829
     15.00    0.8538    0.1895
     15.50    0.9076    0.2011
     16.00    0.9033    0.2043
     16.50    0.9015    0.2088
     17.00    0.9053    0.2147
     17.50    0.9117    0.2215
     18.00    0.9511    0.2341
     18.50    0.9397    0.2363
     19.00    0.9407    0.2435
     19.50    0.9748    0.2546
     20.00    0.9569    0.2582
     21.00    1.1464    0.0677
     22.00    1.0086    0.1198
     23.00    0.8639    0.1765
     24.00    0.7504    0.2284
     25.00    0.6742    0.2733
     26.00    0.6271    0.3124
     27.00    0.5998    0.3477
     28.00    0.5851    0.3806
     29.00    0.5782    0.4121
     30.00    0.5764    0.4429
     31.00    0.5775    0.4733
     32.00    0.5806    0.5036
     33.00    0.5846    0.5340
     34.00    0.5892    0.5646
     35.00    0.5939    0.5953
     36.00    0.5985    0.6263
     37.00    0.6029    0.6575
     38.00    0.6069    0.6890
     39.00    0.6104    0.7207
     40.00    0.6134    0.7526
     41.00    0.6159    0.7847
     42.00    0.6177    0.8169
     43.00    0.6189    0.8493
     44.00    0.6195    0.8817
     45.00    0.6194    0.9141
     46.00    0.6187    0.9466
     47.00    0.6173    0.9791
     48.00    0.6152    1.0115
     49.00    0.6125    1.0438
     50.00    0.6092    1.0760
     51.00    0.6052    1.1080
     52.00    0.6006    1.1397
     53.00    0.5954    1.1712
     54.00    0.5896    1.2025
     55.00    0.5832    1.2334
     56.00    0.5762    1.2639
     57.00    0.5686    1.2940
     58.00    0.5605    1.3237
     59.00    0.5518    1.3528
     60.00    0.5425    1.3815
     61.00    0.5328    1.4096
     62.00    0.5225    1.4372
     63.00    0.5117    1.4641
     64.00    0.5005    1.4903
     65.00    0.4888    1.5158
     66.00    0.4766    1.5407
     67.00    0.4640    1.5647
     68.00    0.4510    1.5880
     69.00    0.4375    1.6105
     70.00    0.4237    1.6321
     71.00    0.4095    1.6529
     72.00    0.3949    1.6727
     73.00    0.3799    1.6917
     74.00    0.3646    1.7096
     75.00    0.3490    1.7266
     76.00    0.3330    1.7427
     77.00    0.3167    1.7577
     78.00    0.3002    1.7716
     79.00    0.2834    1.7846
     80.00    0.2663    1.7964
     81.00    0.2489    1.8072
     82.00    0.2313    1.8169
     83.00    0.2135    1.8254
     84.00    0.1955    1.8329
     85.00    0.1773    1.8392
     86.00    0.1589    1.8444
     87.00    0.1403    1.8484
     88.00    0.1215    1.8513
     89.00    0.1026    1.8530
     90.00    0.0836    1.8536
     91.00    0.0644    1.8530
     92.00    0.0452    1.8513
     93.00    0.0258    1.8484
     94.00    0.0064    1.8444
     95.00   -0.0131    1.8392
     96.00   -0.0327    1.8329
     97.00   -0.0523    1.8255
     98.00   -0.0719    1.8169
     99.00   -0.0915    1.8072
    100.00   -0.1111    1.7965
    101.00   -0.1307    1.7846
    102.00   -0.1502    1.7717
    103.00   -0.1696    1.7578
    104.00   -0.1890    1.7428
    105.00   -0.2083    1.7268
    106.00   -0.2275    1.7098
    107.00   -0.2465    1.6918
    108.00   -0.2653    1.6729
    109.00   -0.2840    1.6530
    110.00   -0.3025    1.6323
    111.00   -0.3208    1.6107
    112.00   -0.3396    1.5882
    113.00   -0.3574    1.5649
    114.00   -0.3749    1.5409
    115.00   -0.3920    1.5161
    116.00   -0.4088    1.4905
    117.00   -0.4253    1.4643
    118.00   -0.4414    1.4374
    119.00   -0.4571    1.4099
    120.00   -0.4723    1.3819
    121.00   -0.4871    1.3532
    122.00   -0.5013    1.3241
    123.00   -0.5151    1.2944
    124.00   -0.5283    1.2643
    125.00   -0.5410    1.2338
    126.00   -0.5530    1.2030
    127.00   -0.5645    1.1718
    128.00   -0.5753    1.1404
    129.00   -0.5854    1.1087
    130.00   -0.5948    1.0767
    131.00   -0.6035    1.0446
    132.00   -0.6115    1.0124
    133.00   -0.6186    0.9801
    134.00   -0.6250    0.9478
    135.00   -0.6306    0.9154
    136.00   -0.6353    0.8831
    137.00   -0.6391    0.8508
    138.00   -0.6421    0.8187
    139.00   -0.6441    0.7867
    140.00   -0.6453    0.7549
    141.00   -0.6455    0.7233
    142.00   -0.6447    0.6920
    143.00   -0.6430    0.6610
    144.00   -0.6403    0.6303
    145.00   -0.6366    0.6000
    146.00   -0.6319    0.5702
    147.00   -0.6262    0.5408
    148.00   -0.6195    0.5119
    149.00   -0.6117    0.4834
    150.00   -0.6030    0.4556
    151.00   -0.5932    0.4284
    152.00   -0.5825    0.4017
    153.00   -0.5707    0.3757
    154.00   -0.5580    0.3504
    155.00   -0.5443    0.3258
    156.00   -0.5297    0.3020
    157.00   -0.5142    0.2789
    158.00   -0.4978    0.2566
    159.00   -0.4806    0.2352
    160.00   -0.4626    0.2146
    161.00   -0.4439    0.1948
    162.00   -0.4246    0.1759
    163.00   -0.4048    0.1580
    164.00   -0.3846    0.1410
    165.00   -0.3641    0.1249
    166.00   -0.3436    0.1098
    167.00   -0.3233    0.0956
    168.00   -0.3034    0.0825
    169.00   -0.2841    0.0704
    170.00   -0.2656    0.0593
    171.00   -0.2479    0.0492
    172.00   -0.2306    0.0401
    173.00   -0.2121    0.0322
    174.00   -0.1900    0.0252
    175.00   -0.1609    0.0194
    176.00   -0.1220    0.0145
    177.00   -0.0725    0.0108
    178.00   -0.0148    0.0081
    179.00    0.0477    0.0065
    180.00    0.1122    0.0060
    180.00    0.1122    0.0060
